/*--------------------------------*- C++ -*----------------------------------*\
| =========                 |                                                 |
| \\      /  F ield         | OpenFOAM: The Open Source CFD Toolbox           |
|  \\    /   O peration     | Version:  4.1                                   |
|   \\  /    A nd           | Web:      www.OpenFOAM.org                      |
|    \\/     M anipulation  |                                                 |
\*---------------------------------------------------------------------------*/
FoamFile
{
    version     2.0;
    format      ascii;
    class       volScalarField;
    location    "3";
    object      thickness;
}
// * * * * * * * * * * * * * * * * * * * * * * * * * * * * * * * * * * * * * //

dimensions      [0 0 0 0 0 0 0];

internalField   uniform 0;

boundaryField
{
    wall
    {
        type            fixedValue;
        value           uniform 0;
    }
    inlet
    {
        type            fixedValue;
        value           uniform 0;
    }
    outlet
    {
        type            fixedValue;
        value           uniform 0;
    }
    Wand_Inlet
    {
        type            fixedValue;
        value           nonuniform List<scalar> 
140
(
14.7745
14.7745
14.7745
14.7745
14.7745
14.7745
14.7745
14.7745
14.7745
14.7745
14.7745
14.7745
14.7745
14.7745
14.7745
14.7745
14.7745
14.7745
14.7745
14.7745
14.7745
14.7745
14.7745
14.7745
14.7745
14.7745
14.7745
14.7745
14.7745
14.7745
14.7745
14.7745
14.7745
14.7745
14.7745
14.7745
14.7745
14.7745
14.7745
14.7745
14.7745
14.7745
14.7745
14.7745
14.7745
14.7745
14.7745
14.7745
14.7745
14.7745
14.7745
14.7745
14.7745
14.7745
14.7745
14.7745
14.7745
14.7745
14.7745
14.7745
14.7745
14.7745
14.7745
14.7745
14.7745
14.7745
14.7745
14.7745
14.7745
14.7745
14.7745
14.7745
14.7745
14.7745
14.7745
14.7745
14.7745
14.7745
14.7745
14.7745
14.7745
14.7745
14.7745
14.7745
14.7745
14.7745
14.7745
14.7745
14.7745
14.7745
14.7745
14.7745
14.7745
14.7745
14.7745
14.7745
14.7745
14.7745
14.7745
14.7745
14.7745
14.7745
14.7745
14.7745
14.7745
14.7745
14.7745
14.7745
14.7745
14.7745
14.7745
14.7745
14.7745
14.7745
14.7745
14.7745
14.7745
14.7745
14.7745
14.7745
14.7745
14.7745
14.7745
14.7745
14.7745
14.7745
14.7745
14.7745
14.7745
14.7745
14.7745
14.7745
14.7745
14.7745
14.7745
14.7745
14.7745
14.7745
14.7745
14.7745
)
;
    }
    Wand_Outlet
    {
        type            fixedValue;
        value           nonuniform List<scalar> 
78
(
0
0
0
0
0
0
0
0
0
0
0
0
0
0
0
0
0
0
0
0
0
0
0
0
0
0
0
0
0
0
0
0
0
0
0
0
0
0
0
0
0
0
0
0
1.97068
1.95217
1.94942
1.96173
2.68619
2.03679
0.809378
2.68176
2.02389
0.799342
2.24521
0.796592
3.53607
2.25236
0.800424
1.5342
3.53194
6.43058
1.53467
7.68865
7.68495
9.20889
9.21229
2.99045
6.78026
5.02127
2.98889
6.7684
4.9946
7.66665
5.21592
7.67866
6.43243
5.23684
)
;
    }
    Wand_TankOben
    {
        type            fixedValue;
        value           uniform 0;
    }
    Wand_TankUnten
    {
        type            fixedValue;
        value           uniform 0;
    }
    Wand_Tankwand
    {
        type            fixedValue;
        value           uniform 0;
    }
}


// ************************************************************************* //
