/*--------------------------------*- C++ -*----------------------------------*\
| =========                 |                                                 |
| \\      /  F ield         | OpenFOAM: The Open Source CFD Toolbox           |
|  \\    /   O peration     | Version:  4.1                                   |
|   \\  /    A nd           | Web:      www.OpenFOAM.org                      |
|    \\/     M anipulation  |                                                 |
\*---------------------------------------------------------------------------*/
FoamFile
{
    version     2.0;
    format      ascii;
    class       volScalarField;
    location    "3";
    object      thicknessFraction;
}
// * * * * * * * * * * * * * * * * * * * * * * * * * * * * * * * * * * * * * //

dimensions      [0 0 0 0 0 0 0];

internalField   uniform 0;

boundaryField
{
    wall
    {
        type            fixedValue;
        value           uniform 0;
    }
    inlet
    {
        type            fixedValue;
        value           uniform 0;
    }
    outlet
    {
        type            fixedValue;
        value           uniform 0;
    }
    Wand_Inlet
    {
        type            fixedValue;
        value           nonuniform List<scalar> 
140
(
1
1
1
1
1
1
1
1
1
1
1
1
1
1
1
1
1
1
1
1
1
1
1
1
1
1
1
1
1
1
1
1
1
1
1
1
1
1
1
1
1
1
1
1
0.999999
1
0.999999
0.999999
1
1
1
1
1
1
1
1
1
1
1
1
1
1
0.999999
1
0.999999
0.999999
1
1
1
1
1
1
1
1
1
1
1
1
1
1
0.999999
1
0.999999
0.999999
1
1
1
1
0.999999
1
0.999999
0.999999
1
1
1
1
1
1
1
1
1
1
1
1
1
1
1
1
0.999999
0.999998
0.999999
0.999999
0.999999
1
1
1
1
1
1
0.999999
0.999998
0.999999
0.999999
0.999999
1
1
1
1
1
1
0.999999
0.999998
0.999999
0.999999
0.999999
0.999999
0.999999
0.999998
0.999999
0.999999
)
;
    }
    Wand_Outlet
    {
        type            fixedValue;
        value           nonuniform List<scalar> 
78
(
0
0
0
0
0
0
0
0
0
0
0
0
0
0
0
0
0
0
0
0
0
0
0
0
0
0
0
0
0
0
0
0
0
0
0
0
0
0
0
0
0
0
0
0
0.133384
0.132131
0.131945
0.132778
0.181812
0.137858
0.054782
0.181513
0.136985
0.0541028
0.151965
0.0539167
0.239336
0.152449
0.054176
0.0741721
0.239056
0.435248
0.0741947
0.520399
0.520149
0.623296
0.623526
0.202406
0.458916
0.33986
0.2023
0.458113
0.338055
0.51891
0.353035
0.519723
0.435373
0.354451
)
;
    }
    Wand_TankOben
    {
        type            fixedValue;
        value           uniform 0;
    }
    Wand_TankUnten
    {
        type            fixedValue;
        value           uniform 0;
    }
    Wand_Tankwand
    {
        type            fixedValue;
        value           uniform 0;
    }
}


// ************************************************************************* //
