/*--------------------------------*- C++ -*----------------------------------*\
| =========                 |                                                 |
| \\      /  F ield         | OpenFOAM: The Open Source CFD Toolbox           |
|  \\    /   O peration     | Version:  4.1                                   |
|   \\  /    A nd           | Web:      www.OpenFOAM.org                      |
|    \\/     M anipulation  |                                                 |
\*---------------------------------------------------------------------------*/
FoamFile
{
    version     2.0;
    format      ascii;
    class       polyBoundaryMesh;
    location    "constant/polyMesh";
    object      boundary;
}
// * * * * * * * * * * * * * * * * * * * * * * * * * * * * * * * * * * * * * //

8
(
    wallOutlet
    {
        type            wall;
        inGroups        1(wall);
        nFaces          0;
        startFace       1053683;
    }
    wallDistributor
    {
        type            wall;
        inGroups        1(wall);
        nFaces          50075;
        startFace       1053683;
    }
    wallTank
    {
        type            wall;
        inGroups        1(wall);
        nFaces          368;
        startFace       1103758;
    }
    inlet
    {
        type            patch;
        nFaces          0;
        startFace       1104126;
    }
    outlet
    {
        type            patch;
        nFaces          0;
        startFace       1104126;
    }
    wallInlet
    {
        type            wall;
        inGroups        1(wall);
        nFaces          311;
        startFace       1104126;
    }
    procBoundary7to4
    {
        type            processor;
        inGroups        1(processor);
        nFaces          2996;
        startFace       1104437;
        matchTolerance  0.0001;
        transform       unknown;
        myProcNo        7;
        neighbProcNo    4;
    }
    procBoundary7to6
    {
        type            processor;
        inGroups        1(processor);
        nFaces          3490;
        startFace       1107433;
        matchTolerance  0.0001;
        transform       unknown;
        myProcNo        7;
        neighbProcNo    6;
    }
)

// ************************************************************************* //
