/*--------------------------------*- C++ -*----------------------------------*\
| =========                 |                                                 |
| \\      /  F ield         | OpenFOAM: The Open Source CFD Toolbox           |
|  \\    /   O peration     | Version:  4.1                                   |
|   \\  /    A nd           | Web:      www.OpenFOAM.org                      |
|    \\/     M anipulation  |                                                 |
\*---------------------------------------------------------------------------*/
FoamFile
{
    version     2.0;
    format      ascii;
    class       polyBoundaryMesh;
    location    "constant/polyMesh";
    object      boundary;
}
// * * * * * * * * * * * * * * * * * * * * * * * * * * * * * * * * * * * * * //

9
(
    wallOutlet
    {
        type            wall;
        inGroups        1(wall);
        nFaces          0;
        startFace       1037698;
    }
    wallDistributor
    {
        type            wall;
        inGroups        1(wall);
        nFaces          49566;
        startFace       1037698;
    }
    wallTank
    {
        type            wall;
        inGroups        1(wall);
        nFaces          0;
        startFace       1087264;
    }
    inlet
    {
        type            patch;
        nFaces          0;
        startFace       1087264;
    }
    outlet
    {
        type            patch;
        nFaces          0;
        startFace       1087264;
    }
    wallInlet
    {
        type            wall;
        inGroups        1(wall);
        nFaces          0;
        startFace       1087264;
    }
    procBoundary1to0
    {
        type            processor;
        inGroups        1(processor);
        nFaces          3093;
        startFace       1087264;
        matchTolerance  0.0001;
        transform       unknown;
        myProcNo        1;
        neighbProcNo    0;
    }
    procBoundary1to2
    {
        type            processor;
        inGroups        1(processor);
        nFaces          2773;
        startFace       1090357;
        matchTolerance  0.0001;
        transform       unknown;
        myProcNo        1;
        neighbProcNo    2;
    }
    procBoundary1to6
    {
        type            processor;
        inGroups        1(processor);
        nFaces          202;
        startFace       1093130;
        matchTolerance  0.0001;
        transform       unknown;
        myProcNo        1;
        neighbProcNo    6;
    }
)

// ************************************************************************* //
