/*--------------------------------*- C++ -*----------------------------------*\
|       o          |                                                          |
|    o     o       | OpenFOAM (Engys Edition):                                |
|   o   O   o      | Version: 2.1_engysEdition-1.0                            |
|    o     o       | Web:     http://www.engys.com                            |
|       o          |                                                          |
\*---------------------------------------------------------------------------*/
FoamFile
{
    version     2.0;
    format      ascii;
    class       dictionary;
    location    "constant";
    object      g;
}
// * * * * * * * * * * * * * * * * * * * * * * * * * * * * * * * * * * * * * //

dimensions      [ 0 1 -2 0 0 0 0 ];

value           ( 0 0 -9.81 );


// ************************************************************************* //
