FoamFile
{
    version     2.0;
    format      ascii;
    class       volScalarField;
    object      T;
}
// * * * * * * * * * * * * * * * * * * * * * * * * * * * * * * * * * * * * * //

dimensions      [0 0 0 1 0 0 0];

internalField   uniform 293;

boundaryField
{
    inlet
    {
        type            fixedValue;
        value           uniform 293;
    }
    outlet
    {
        type            zeroGradient;
        value           uniform 293;
    }
  
    "Wand.*"
        {
            type            zeroGradient;
            value           uniform 293;
        }

}
