/*--------------------------------*- C++ -*----------------------------------*\
| =========                 |                                                 |
| \\      /  F ield         | OpenFOAM: The Open Source CFD Toolbox           |
|  \\    /   O peration     | Version:  4.1                                   |
|   \\  /    A nd           | Web:      www.OpenFOAM.org                      |
|    \\/     M anipulation  |                                                 |
\*---------------------------------------------------------------------------*/
FoamFile
{
    version     2.0;
    format      ascii;
    class       extendedFeatureEdgeMesh;
    location    "constant/extendedFeatureEdgeMesh";
    object      Wand_TankUnten.extendedFeatureEdgeMesh;
}
// * * * * * * * * * * * * * * * * * * * * * * * * * * * * * * * * * * * * * //

// points

292
(
(-27.5448 -41.7287 300)
(-23.6934 -44.0298 300)
(37.6536 -32.8969 300)
(40.4509 -29.3893 300)
(483.866 125.989 300)
(487.238 112.246 300)
(15.4508 47.5528 300)
(11.126 48.7464 300)
(389.018 -314.11 300)
(379.973 -324.993 300)
(119.129 485.601 300)
(132.824 482.035 300)
(480.107 139.631 300)
(-319.583 384.534 300)
(-308.574 393.424 300)
(146.411 478.083 300)
(48.1981 13.3018 300)
(46.8117 17.5687 300)
(-455.614 -205.951 300)
(-461.26 -192.975 300)
(-449.604 -218.762 300)
(-443.233 -231.397 300)
(-45.0484 -21.6942 300)
(-42.9224 -25.645 300)
(475.964 153.162 300)
(397.751 -302.975 300)
(-199.483 -458.483 300)
(-212.377 -452.654 300)
(-186.428 -463.945 300)
(-173.224 -469.034 300)
(159.882 473.749 300)
(-27.5448 41.7287 300)
(-31.1745 39.0916 300)
(471.439 166.57 300)
(-297.317 401.999 300)
(19.6513 45.9764 300)
(173.224 469.034 300)
(406.166 -291.598 300)
(466.536 179.844 300)
(-19.6513 -45.9764 300)
(186.428 463.945 300)
(45.0484 21.6942 300)
(-285.821 410.251 300)
(461.26 192.975 300)
(199.483 458.483 300)
(42.9224 -25.645 300)
(414.255 -279.987 300)
(455.614 205.951 300)
(23.6934 44.0298 300)
(212.377 452.654 300)
(-471.439 -166.57 300)
(-475.964 -153.162 300)
(-466.536 -179.844 300)
(-274.097 418.175 300)
(449.604 218.762 300)
(-46.8117 -17.5687 300)
(-159.882 -473.749 300)
(-146.411 -478.083 300)
(-132.824 -482.035 300)
(225.102 446.463 300)
(42.9224 25.645 300)
(422.012 -268.152 300)
(443.233 231.397 300)
(237.646 439.914 300)
(436.507 243.847 300)
(-23.6934 44.0298 300)
(-262.154 425.765 300)
(250 433.013 300)
(-15.4508 -47.5528 300)
(429.432 256.102 300)
(27.5448 41.7287 300)
(262.154 425.765 300)
(429.432 -256.102 300)
(422.012 268.152 300)
(274.097 418.175 300)
(-250 433.013 300)
(40.4509 29.3893 300)
(414.255 279.987 300)
(285.821 410.251 300)
(-483.866 -125.989 300)
(-487.238 -112.246 300)
(-480.107 -139.631 300)
(-48.1981 -13.3018 300)
(406.166 291.598 300)
(436.507 -243.847 300)
(-119.129 -485.601 300)
(31.1745 39.0916 300)
(-105.34 -488.778 300)
(-91.4656 -491.563 300)
(297.317 401.999 300)
(397.751 302.975 300)
(308.574 393.424 300)
(-237.646 439.914 300)
(37.6536 32.8969 300)
(389.018 314.11 300)
(319.583 384.534 300)
(45.0484 -21.6942 300)
(379.973 324.993 300)
(34.5531 36.1397 300)
(330.337 375.336 300)
(443.233 -231.397 300)
(-11.126 -48.7464 300)
(370.624 335.616 300)
(340.827 365.838 300)
(360.978 345.969 300)
(351.043 356.046 300)
(-225.102 446.463 300)
(449.604 -218.762 300)
(-492.808 -84.5004 300)
(-495.002 -70.5207 300)
(-490.219 -98.4125 300)
(-49.1965 -8.92785 300)
(-77.5183 -493.954 300)
(-63.5089 -495.95 300)
(-49.4487 -497.549 300)
(-19.6513 45.9764 300)
(-212.377 452.654 300)
(455.614 -205.951 300)
(-6.71166 -49.5475 300)
(-199.483 458.483 300)
(46.8117 -17.5687 300)
(461.26 -192.975 300)
(-498.199 -42.403 300)
(-499.199 -28.2875 300)
(-496.799 -56.4844 300)
(-49.7987 -4.48197 300)
(-35.3488 -498.749 300)
(-21.2206 -499.549 300)
(-7.07542 -499.95 300)
(-186.428 463.945 300)
(466.536 -179.844 300)
(-2.24324 -49.9497 300)
(-15.4508 47.5528 300)
(-173.224 469.034 300)
(-499.8 14.1494 300)
(-499.199 28.2875 300)
(-500 -1.93717e-12 300)
(-499.8 -14.1494 300)
(471.439 -166.57 300)
(-50 6.12323e-15 300)
(7.07542 -499.95 300)
(21.2206 -499.549 300)
(35.3488 -498.749 300)
(49.4487 -497.549 300)
(-159.882 473.749 300)
(48.1981 -13.3018 300)
(2.24324 -49.9497 300)
(475.964 -153.162 300)
(-146.411 478.083 300)
(-496.799 56.4844 300)
(-495.002 70.5207 300)
(-498.199 42.403 300)
(-49.7987 4.48197 300)
(480.107 -139.631 300)
(63.5089 -495.95 300)
(77.5183 -493.954 300)
(91.4656 -491.563 300)
(-11.126 48.7464 300)
(-132.824 482.035 300)
(6.71166 -49.5475 300)
(483.866 -125.989 300)
(-490.219 98.4125 300)
(-487.238 112.246 300)
(-492.808 84.5004 300)
(-119.129 485.601 300)
(-49.1965 8.92785 300)
(105.34 -488.778 300)
(119.129 -485.601 300)
(132.824 -482.035 300)
(49.1965 -8.92785 300)
(487.238 -112.246 300)
(11.126 -48.7464 300)
(-105.34 488.778 300)
(-480.107 139.631 300)
(-475.964 153.162 300)
(-483.866 125.989 300)
(490.219 -98.4125 300)
(-48.1981 13.3018 300)
(146.411 -478.083 300)
(159.882 -473.749 300)
(173.224 -469.034 300)
(-6.71166 49.5475 300)
(-91.4656 491.563 300)
(15.4508 -47.5528 300)
(492.808 -84.5004 300)
(-466.536 179.844 300)
(-461.26 192.975 300)
(-471.439 166.57 300)
(-46.8117 17.5687 300)
(-77.5183 493.954 300)
(186.428 -463.945 300)
(199.483 -458.483 300)
(212.377 -452.654 300)
(-351.043 -356.046 300)
(-360.978 -345.969 300)
(-340.827 -365.838 300)
(-330.337 -375.336 300)
(49.7987 -4.48197 300)
(495.002 -70.5207 300)
(19.6513 -45.9764 300)
(-63.5089 495.95 300)
(-449.604 218.762 300)
(-443.233 231.397 300)
(-455.614 205.951 300)
(-45.0484 21.6942 300)
(225.102 -446.463 300)
(237.646 -439.914 300)
(250 -433.013 300)
(262.154 -425.765 300)
(496.799 -56.4844 300)
(23.6934 -44.0298 300)
(-2.24324 49.9497 300)
(-49.4487 497.549 300)
(-422.012 268.152 300)
(-414.255 279.987 300)
(-429.432 256.102 300)
(-436.507 243.847 300)
(-42.9224 25.645 300)
(274.097 -418.175 300)
(285.821 -410.251 300)
(498.199 -42.403 300)
(297.317 -401.999 300)
(27.5448 -41.7287 300)
(-35.3488 498.749 300)
(-397.751 302.975 300)
(-389.018 314.11 300)
(-406.166 291.598 300)
(-40.4509 29.3893 300)
(308.574 -393.424 300)
(319.583 -384.534 300)
(330.337 -375.336 300)
(50 -1.22465e-14 300)
(31.1745 -39.0916 300)
(499.199 -28.2875 300)
(-379.973 -324.993 300)
(-389.018 -314.11 300)
(-370.624 -335.616 300)
(-370.624 335.616 300)
(-360.978 345.969 300)
(-379.973 324.993 300)
(-37.6536 -32.8969 300)
(-34.5531 -36.1397 300)
(-319.583 -384.534 300)
(-308.574 -393.424 300)
(-21.2206 499.549 300)
(-37.6536 32.8969 300)
(-297.317 -401.999 300)
(340.827 -365.838 300)
(351.043 -356.046 300)
(34.5531 -36.1397 300)
(-34.5531 36.1397 300)
(499.8 -14.1494 300)
(-351.043 356.046 300)
(2.24324 49.9497 300)
(-7.07542 499.95 300)
(500 -1.22465e-13 300)
(360.978 -345.969 300)
(-31.1745 -39.0916 300)
(7.07542 499.95 300)
(-340.827 365.838 300)
(499.8 14.1494 300)
(21.2206 499.549 300)
(49.7987 4.48197 300)
(370.624 -335.616 300)
(499.199 28.2875 300)
(-406.166 -291.598 300)
(-414.255 -279.987 300)
(-397.751 -302.975 300)
(-40.4509 -29.3893 300)
(-285.821 -410.251 300)
(35.3488 498.749 300)
(-274.097 -418.175 300)
(-262.154 -425.765 300)
(-330.337 375.336 300)
(498.199 42.403 300)
(6.71166 49.5475 300)
(49.4487 497.549 300)
(496.799 56.4844 300)
(63.5089 495.95 300)
(49.1965 8.92785 300)
(495.002 70.5207 300)
(77.5183 493.954 300)
(492.808 84.5004 300)
(-436.507 -243.847 300)
(-429.432 -256.102 300)
(-422.012 -268.152 300)
(91.4656 491.563 300)
(-250 -433.013 300)
(-237.646 -439.914 300)
(-225.102 -446.463 300)
(490.219 98.4125 300)
(105.34 488.778 300)
)

// edges

292
(
(0 1)
(2 3)
(4 5)
(6 7)
(8 9)
(10 11)
(12 4)
(13 14)
(11 15)
(16 17)
(18 19)
(20 18)
(21 20)
(22 23)
(24 12)
(25 8)
(26 27)
(28 26)
(29 28)
(15 30)
(31 32)
(33 24)
(14 34)
(35 6)
(30 36)
(37 25)
(38 33)
(1 39)
(36 40)
(17 41)
(34 42)
(43 38)
(40 44)
(3 45)
(46 37)
(47 43)
(48 35)
(44 49)
(50 51)
(52 50)
(19 52)
(42 53)
(54 47)
(55 22)
(56 29)
(57 56)
(58 57)
(49 59)
(41 60)
(61 46)
(62 54)
(59 63)
(64 62)
(65 31)
(53 66)
(63 67)
(39 68)
(69 64)
(70 48)
(67 71)
(72 61)
(73 69)
(71 74)
(66 75)
(60 76)
(77 73)
(74 78)
(79 80)
(81 79)
(51 81)
(82 55)
(83 77)
(84 72)
(85 58)
(86 70)
(87 85)
(88 87)
(78 89)
(90 83)
(89 91)
(75 92)
(76 93)
(94 90)
(91 95)
(45 96)
(97 94)
(98 86)
(95 99)
(100 84)
(68 101)
(102 97)
(99 103)
(93 98)
(104 102)
(103 105)
(92 106)
(105 104)
(107 100)
(108 109)
(110 108)
(80 110)
(111 82)
(112 88)
(113 112)
(114 113)
(115 65)
(106 116)
(117 107)
(101 118)
(116 119)
(96 120)
(121 117)
(122 123)
(124 122)
(109 124)
(125 111)
(126 114)
(127 126)
(128 127)
(119 129)
(130 121)
(118 131)
(132 115)
(129 133)
(134 135)
(136 134)
(137 136)
(138 130)
(123 137)
(139 125)
(140 128)
(141 140)
(142 141)
(143 142)
(133 144)
(120 145)
(131 146)
(147 138)
(144 148)
(149 150)
(151 149)
(135 151)
(152 139)
(153 147)
(154 143)
(155 154)
(156 155)
(157 132)
(148 158)
(146 159)
(160 153)
(161 162)
(163 161)
(150 163)
(158 164)
(165 152)
(166 156)
(167 166)
(168 167)
(145 169)
(170 160)
(159 171)
(164 172)
(173 174)
(175 173)
(162 175)
(176 170)
(177 165)
(178 168)
(179 178)
(180 179)
(181 157)
(172 182)
(171 183)
(184 176)
(185 186)
(187 185)
(174 187)
(188 177)
(182 189)
(190 180)
(191 190)
(192 191)
(193 194)
(195 193)
(196 195)
(169 197)
(198 184)
(183 199)
(189 200)
(201 202)
(203 201)
(186 203)
(204 188)
(205 192)
(206 205)
(207 206)
(208 207)
(209 198)
(199 210)
(211 181)
(200 212)
(213 214)
(215 213)
(216 215)
(202 216)
(217 204)
(218 208)
(219 218)
(220 209)
(221 219)
(210 222)
(212 223)
(224 225)
(226 224)
(214 226)
(227 217)
(228 221)
(229 228)
(230 229)
(197 231)
(222 232)
(233 220)
(234 235)
(236 234)
(237 238)
(194 236)
(239 237)
(240 241)
(225 239)
(242 196)
(243 242)
(223 244)
(245 227)
(246 243)
(247 230)
(248 247)
(232 249)
(250 245)
(251 233)
(238 252)
(253 211)
(244 254)
(249 2)
(255 251)
(256 248)
(241 257)
(254 258)
(252 259)
(260 255)
(258 261)
(231 262)
(263 256)
(264 260)
(265 266)
(267 265)
(235 267)
(268 240)
(269 246)
(261 270)
(271 269)
(272 271)
(32 250)
(259 273)
(274 264)
(275 253)
(270 276)
(277 274)
(257 0)
(9 263)
(276 278)
(262 279)
(280 277)
(278 281)
(282 280)
(283 21)
(284 283)
(285 284)
(266 285)
(7 275)
(273 13)
(23 268)
(281 286)
(287 272)
(288 287)
(289 288)
(27 289)
(290 282)
(286 291)
(279 16)
(5 290)
(291 10)
)

// concaveStart mixedStart nonFeatureStart
0 0 0
// internalStart flatStart openStart multipleStart
0 0 0 292
// normals
292{(0 0 -1)}
// normal volume types

292
(
0
0
0
0
0
0
0
0
0
0
0
0
0
0
0
0
0
0
0
0
0
0
0
0
0
0
0
0
0
0
0
0
0
0
0
0
0
0
0
0
0
0
0
0
0
0
0
0
0
0
0
0
0
0
0
0
0
0
0
0
0
0
0
0
0
0
0
0
0
0
0
0
0
0
0
0
0
0
0
0
0
0
0
0
0
0
0
0
0
0
0
0
0
0
0
0
0
0
0
0
0
0
0
0
0
0
0
0
0
0
0
0
0
0
0
0
0
0
0
0
0
0
0
0
0
0
0
0
0
0
0
0
0
0
0
0
0
0
0
0
0
0
0
0
0
0
0
0
0
0
0
0
0
0
0
0
0
0
0
0
0
0
0
0
0
0
0
0
0
0
0
0
0
0
0
0
0
0
0
0
0
0
0
0
0
0
0
0
0
0
0
0
0
0
0
0
0
0
0
0
0
0
0
0
0
0
0
0
0
0
0
0
0
0
0
0
0
0
0
0
0
0
0
0
0
0
0
0
0
0
0
0
0
0
0
0
0
0
0
0
0
0
0
0
0
0
0
0
0
0
0
0
0
0
0
0
0
0
0
0
0
0
0
0
0
0
0
0
0
0
0
0
0
0
0
0
0
0
0
0
0
0
0
0
0
0
0
0
0
0
0
0
)

// normalDirections

292
(
1(1)
1(1)
1(1)
1(1)
1(1)
1(1)
1(1)
1(1)
1(1)
1(1)
1(1)
1(1)
1(1)
1(1)
1(1)
1(1)
1(1)
1(1)
1(1)
1(1)
1(1)
1(1)
1(1)
1(1)
1(1)
1(1)
1(1)
1(1)
1(1)
1(1)
1(1)
1(1)
1(1)
1(1)
1(1)
1(1)
1(1)
1(1)
1(1)
1(1)
1(1)
1(1)
1(1)
1(1)
1(1)
1(1)
1(1)
1(1)
1(1)
1(1)
1(1)
1(1)
1(1)
1(1)
1(1)
1(1)
1(1)
1(1)
1(1)
1(1)
1(1)
1(1)
1(1)
1(1)
1(1)
1(1)
1(1)
1(1)
1(1)
1(1)
1(1)
1(1)
1(1)
1(1)
1(1)
1(1)
1(1)
1(1)
1(1)
1(1)
1(1)
1(1)
1(1)
1(1)
1(1)
1(1)
1(1)
1(1)
1(1)
1(1)
1(1)
1(1)
1(1)
1(1)
1(1)
1(1)
1(1)
1(1)
1(1)
1(1)
1(1)
1(1)
1(1)
1(1)
1(1)
1(1)
1(1)
1(1)
1(1)
1(1)
1(1)
1(1)
1(1)
1(1)
1(1)
1(1)
1(1)
1(1)
1(1)
1(1)
1(1)
1(1)
1(1)
1(1)
1(1)
1(1)
1(1)
1(1)
1(1)
1(1)
1(1)
1(1)
1(1)
1(1)
1(1)
1(1)
1(1)
1(1)
1(1)
1(1)
1(1)
1(1)
1(1)
1(1)
1(1)
1(1)
1(1)
1(1)
1(1)
1(1)
1(1)
1(1)
1(1)
1(1)
1(1)
1(1)
1(1)
1(1)
1(1)
1(1)
1(1)
1(1)
1(1)
1(1)
1(1)
1(1)
1(1)
1(1)
1(1)
1(1)
1(1)
1(1)
1(1)
1(1)
1(1)
1(1)
1(1)
1(1)
1(1)
1(1)
1(1)
1(1)
1(1)
1(1)
1(1)
1(1)
1(1)
1(1)
1(1)
1(1)
1(1)
1(1)
1(1)
1(1)
1(1)
1(1)
1(1)
1(1)
1(1)
1(1)
1(1)
1(1)
1(1)
1(1)
1(1)
1(1)
1(1)
1(1)
1(1)
1(1)
1(1)
1(1)
1(1)
1(1)
1(1)
1(1)
1(1)
1(1)
1(1)
1(1)
1(1)
1(1)
1(1)
1(1)
1(1)
1(1)
1(1)
1(1)
1(1)
1(1)
1(1)
1(1)
1(1)
1(1)
1(1)
1(1)
1(1)
1(1)
1(1)
1(1)
1(1)
1(1)
1(1)
1(1)
1(1)
1(1)
1(1)
1(1)
1(1)
1(1)
1(1)
1(1)
1(1)
1(1)
1(1)
1(1)
1(1)
1(1)
1(1)
1(1)
1(1)
1(1)
1(1)
1(1)
1(1)
1(1)
1(1)
1(1)
1(1)
1(1)
1(1)
1(1)
1(1)
1(1)
1(1)
1(1)
1(1)
1(1)
1(1)
1(1)
1(1)
1(1)
1(1)
1(1)
1(1)
1(1)
1(1)
1(1)
1(1)
1(1)
1(1)
1(1)
)

// edgeNormals

292
(
1(0)
1(1)
1(2)
1(3)
1(4)
1(5)
1(6)
1(7)
1(8)
1(9)
1(10)
1(11)
1(12)
1(13)
1(14)
1(15)
1(16)
1(17)
1(18)
1(19)
1(20)
1(21)
1(22)
1(23)
1(24)
1(25)
1(26)
1(27)
1(28)
1(29)
1(30)
1(31)
1(32)
1(33)
1(34)
1(35)
1(36)
1(37)
1(38)
1(39)
1(40)
1(41)
1(42)
1(43)
1(44)
1(45)
1(46)
1(47)
1(48)
1(49)
1(50)
1(51)
1(52)
1(53)
1(54)
1(55)
1(56)
1(57)
1(58)
1(59)
1(60)
1(61)
1(62)
1(63)
1(64)
1(65)
1(66)
1(67)
1(68)
1(69)
1(70)
1(71)
1(72)
1(73)
1(74)
1(75)
1(76)
1(77)
1(78)
1(79)
1(80)
1(81)
1(82)
1(83)
1(84)
1(85)
1(86)
1(87)
1(88)
1(89)
1(90)
1(91)
1(92)
1(93)
1(94)
1(95)
1(96)
1(97)
1(98)
1(99)
1(100)
1(101)
1(102)
1(103)
1(104)
1(105)
1(106)
1(107)
1(108)
1(109)
1(110)
1(111)
1(112)
1(113)
1(114)
1(115)
1(116)
1(117)
1(118)
1(119)
1(120)
1(121)
1(122)
1(123)
1(124)
1(125)
1(126)
1(127)
1(128)
1(129)
1(130)
1(131)
1(132)
1(133)
1(134)
1(135)
1(136)
1(137)
1(138)
1(139)
1(140)
1(141)
1(142)
1(143)
1(144)
1(145)
1(146)
1(147)
1(148)
1(149)
1(150)
1(151)
1(152)
1(153)
1(154)
1(155)
1(156)
1(157)
1(158)
1(159)
1(160)
1(161)
1(162)
1(163)
1(164)
1(165)
1(166)
1(167)
1(168)
1(169)
1(170)
1(171)
1(172)
1(173)
1(174)
1(175)
1(176)
1(177)
1(178)
1(179)
1(180)
1(181)
1(182)
1(183)
1(184)
1(185)
1(186)
1(187)
1(188)
1(189)
1(190)
1(191)
1(192)
1(193)
1(194)
1(195)
1(196)
1(197)
1(198)
1(199)
1(200)
1(201)
1(202)
1(203)
1(204)
1(205)
1(206)
1(207)
1(208)
1(209)
1(210)
1(211)
1(212)
1(213)
1(214)
1(215)
1(216)
1(217)
1(218)
1(219)
1(220)
1(221)
1(222)
1(223)
1(224)
1(225)
1(226)
1(227)
1(228)
1(229)
1(230)
1(231)
1(232)
1(233)
1(234)
1(235)
1(236)
1(237)
1(238)
1(239)
1(240)
1(241)
1(242)
1(243)
1(244)
1(245)
1(246)
1(247)
1(248)
1(249)
1(250)
1(251)
1(252)
1(253)
1(254)
1(255)
1(256)
1(257)
1(258)
1(259)
1(260)
1(261)
1(262)
1(263)
1(264)
1(265)
1(266)
1(267)
1(268)
1(269)
1(270)
1(271)
1(272)
1(273)
1(274)
1(275)
1(276)
1(277)
1(278)
1(279)
1(280)
1(281)
1(282)
1(283)
1(284)
1(285)
1(286)
1(287)
1(288)
1(289)
1(290)
1(291)
)

// featurePointNormals
0()
// featurePointEdges
0()
// regionEdges

292
(
0
1
2
3
4
5
6
7
8
9
10
11
12
13
14
15
16
17
18
19
20
21
22
23
24
25
26
27
28
29
30
31
32
33
34
35
36
37
38
39
40
41
42
43
44
45
46
47
48
49
50
51
52
53
54
55
56
57
58
59
60
61
62
63
64
65
66
67
68
69
70
71
72
73
74
75
76
77
78
79
80
81
82
83
84
85
86
87
88
89
90
91
92
93
94
95
96
97
98
99
100
101
102
103
104
105
106
107
108
109
110
111
112
113
114
115
116
117
118
119
120
121
122
123
124
125
126
127
128
129
130
131
132
133
134
135
136
137
138
139
140
141
142
143
144
145
146
147
148
149
150
151
152
153
154
155
156
157
158
159
160
161
162
163
164
165
166
167
168
169
170
171
172
173
174
175
176
177
178
179
180
181
182
183
184
185
186
187
188
189
190
191
192
193
194
195
196
197
198
199
200
201
202
203
204
205
206
207
208
209
210
211
212
213
214
215
216
217
218
219
220
221
222
223
224
225
226
227
228
229
230
231
232
233
234
235
236
237
238
239
240
241
242
243
244
245
246
247
248
249
250
251
252
253
254
255
256
257
258
259
260
261
262
263
264
265
266
267
268
269
270
271
272
273
274
275
276
277
278
279
280
281
282
283
284
285
286
287
288
289
290
291
)



// ************************************************************************* //
