/*--------------------------------*- C++ -*----------------------------------*\
| =========                 |                                                 |
| \\      /  F ield         | OpenFOAM: The Open Source CFD Toolbox           |
|  \\    /   O peration     | Version:  4.1                                   |
|   \\  /    A nd           | Web:      www.OpenFOAM.org                      |
|    \\/     M anipulation  |                                                 |
\*---------------------------------------------------------------------------*/
FoamFile
{
    version     2.0;
    format      ascii;
    class       dictionary;
    object      blockMeshDict;
}
// * * * * * * * * * * * * * * * * * * * * * * * * * * * * * * * * * * * * * //

convertToMeters 1;

vertices
(
    (-3.1 -3.1 0)
    (3.1 -3.1 0)
    (3.1 3.1 0)
    (-3.1 3.1 0)
    (-3.1 -3.1 6.2)
    (3.1 -3.1 6.2)
    (3.1 3.1 6.2)
    (-3.1 3.1 6.2)
);

blocks
(
    hex (0 1 2 3 4 5 6 7) (20 20 20) simpleGrading (1 1 1)
);

edges
(
);

boundary
(
    inlet
    {
        type wall;
        faces
        (
            (0 3 2 1)  
        );
    }
    outlet
    {
        type wall;
        faces
        (
            (4 5 6 7)
        );
    }
    heated_wall
    {
        type wall;
        faces
        (
            (0 4 7 3)
            (2 6 5 1)
	    (1 5 4 0)
	     (3 7 6 2)
        );
    }
);

mergePatchPairs
(
);

// ************************************************************************* //
