/*--------------------------------*- C++ -*----------------------------------*\
|       o          |                                                          |
|    o     o       | OpenFOAM (Engys Edition):                                |
|   o   O   o      | Version: 2.1_engysEdition-1.0                            |
|    o     o       | Web:     http://www.engys.com                            |
|       o          |                                                          |
\*---------------------------------------------------------------------------*/
FoamFile
{
    version     2.0;
    format      ascii;
    class       dictionary;
    location    "system";
    object      controlDict;
}
// * * * * * * * * * * * * * * * * * * * * * * * * * * * * * * * * * * * * * //
application     buoyantBoussinesqPimpleFoam;

startFrom       latestTime;

startTime       0;

//stopAt writeNow;
stopAt          endTime;

endTime         60000;

deltaT          0.1;

writeControl    adjustableRunTime;

writeInterval   5;

purgeWrite      2;

writeFormat     ascii;

writePrecision  10;

writeCompression on;

timeFormat      general;

timePrecision   6;

runTimeModifiable yes;

adjustTimeStep  yes;

maxCo           0.5;

functions
{
 #include "fieldAverage"
}


// ************************************************************************* //
