/*--------------------------------*- C++ -*----------------------------------*\
| =========                 |                                                 |
| \\      /  F ield         | OpenFOAM: The Open Source CFD Toolbox           |
|  \\    /   O peration     | Version:  4.1                                   |
|   \\  /    A nd           | Web:      www.OpenFOAM.org                      |
|    \\/     M anipulation  |                                                 |
\*---------------------------------------------------------------------------*/
FoamFile
{
    version     2.0;
    format      ascii;
    class       polyBoundaryMesh;
    location    "constant/polyMesh";
    object      boundary;
}
// * * * * * * * * * * * * * * * * * * * * * * * * * * * * * * * * * * * * * //

13
(
    wallOutlet
    {
        type            wall;
        inGroups        1(wall);
        nFaces          2816;
        startFace       1035100;
    }
    wallDistributor
    {
        type            wall;
        inGroups        1(wall);
        nFaces          5585;
        startFace       1037916;
    }
    wallTank
    {
        type            wall;
        inGroups        1(wall);
        nFaces          46700;
        startFace       1043501;
    }
    inlet
    {
        type            patch;
        nFaces          340;
        startFace       1090201;
    }
    outlet
    {
        type            patch;
        nFaces          340;
        startFace       1090541;
    }
    wallInlet
    {
        type            wall;
        inGroups        1(wall);
        nFaces          2021;
        startFace       1090881;
    }
    procBoundary6to0
    {
        type            processor;
        inGroups        1(processor);
        nFaces          292;
        startFace       1092902;
        matchTolerance  0.0001;
        transform       unknown;
        myProcNo        6;
        neighbProcNo    0;
    }
    procBoundary6to1
    {
        type            processor;
        inGroups        1(processor);
        nFaces          202;
        startFace       1093194;
        matchTolerance  0.0001;
        transform       unknown;
        myProcNo        6;
        neighbProcNo    1;
    }
    procBoundary6to2
    {
        type            processor;
        inGroups        1(processor);
        nFaces          200;
        startFace       1093396;
        matchTolerance  0.0001;
        transform       unknown;
        myProcNo        6;
        neighbProcNo    2;
    }
    procBoundary6to3
    {
        type            processor;
        inGroups        1(processor);
        nFaces          200;
        startFace       1093596;
        matchTolerance  0.0001;
        transform       unknown;
        myProcNo        6;
        neighbProcNo    3;
    }
    procBoundary6to4
    {
        type            processor;
        inGroups        1(processor);
        nFaces          196;
        startFace       1093796;
        matchTolerance  0.0001;
        transform       unknown;
        myProcNo        6;
        neighbProcNo    4;
    }
    procBoundary6to5
    {
        type            processor;
        inGroups        1(processor);
        nFaces          200;
        startFace       1093992;
        matchTolerance  0.0001;
        transform       unknown;
        myProcNo        6;
        neighbProcNo    5;
    }
    procBoundary6to7
    {
        type            processor;
        inGroups        1(processor);
        nFaces          3490;
        startFace       1094192;
        matchTolerance  0.0001;
        transform       unknown;
        myProcNo        6;
        neighbProcNo    7;
    }
)

// ************************************************************************* //
