/*--------------------------------*- C++ -*----------------------------------*\
| =========                 |                                                 |
| \\      /  F ield         | OpenFOAM: The Open Source CFD Toolbox           |
|  \\    /   O peration     | Version:  4.1                                   |
|   \\  /    A nd           | Web:      www.OpenFOAM.org                      |
|    \\/     M anipulation  |                                                 |
\*---------------------------------------------------------------------------*/
FoamFile
{
    version     2.0;
    format      ascii;
    class       extendedFeatureEdgeMesh;
    location    "constant/extendedFeatureEdgeMesh";
    object      Wand_Inlet.extendedFeatureEdgeMesh;
}
// * * * * * * * * * * * * * * * * * * * * * * * * * * * * * * * * * * * * * //

// points

280
(
(-25.645 -42.9224 300)
(-27.5448 -41.7287 300)
(-27.5448 -41.7287 0)
(-25.645 -42.9224 0)
(-23.6934 -44.0298 0)
(-23.6934 -44.0298 300)
(-21.6942 -45.0484 300)
(-21.6942 -45.0484 0)
(49.9497 2.24324 300)
(50 -1.22465e-14 0)
(49.9497 2.24324 0)
(50 -1.22465e-14 300)
(-19.6513 -45.9764 300)
(-19.6513 -45.9764 0)
(49.7987 4.48197 300)
(49.7987 4.48197 0)
(-17.5687 -46.8117 300)
(-17.5687 -46.8117 0)
(49.5475 6.71166 300)
(49.5475 6.71166 0)
(-15.4508 -47.5528 300)
(-15.4508 -47.5528 0)
(49.1965 8.92785 300)
(49.1965 8.92785 0)
(-13.3018 -48.1981 300)
(48.7464 11.126 300)
(-13.3018 -48.1981 0)
(48.7464 11.126 0)
(-11.126 -48.7464 300)
(-11.126 -48.7464 0)
(48.1981 13.3018 300)
(48.1981 13.3018 0)
(-8.92785 -49.1965 300)
(-8.92785 -49.1965 0)
(-6.71166 -49.5475 0)
(47.5528 15.4508 300)
(47.5528 15.4508 0)
(-6.71166 -49.5475 300)
(46.8117 17.5687 300)
(46.8117 17.5687 0)
(-4.48197 -49.7987 300)
(-4.48197 -49.7987 0)
(45.9764 19.6513 300)
(45.9764 19.6513 0)
(-2.24324 -49.9497 300)
(-2.24324 -49.9497 0)
(45.0484 21.6942 300)
(45.0484 21.6942 0)
(-9.18485e-15 -50 300)
(-9.18485e-15 -50 0)
(44.0298 23.6934 300)
(44.0298 23.6934 0)
(2.24324 -49.9497 300)
(2.24324 -49.9497 0)
(42.9224 25.645 300)
(42.9224 25.645 0)
(4.48197 -49.7987 300)
(4.48197 -49.7987 0)
(41.7287 27.5448 300)
(41.7287 27.5448 0)
(6.71166 -49.5475 300)
(6.71166 -49.5475 0)
(8.92785 -49.1965 300)
(8.92785 -49.1965 0)
(40.4509 29.3893 300)
(40.4509 29.3893 0)
(11.126 -48.7464 0)
(11.126 -48.7464 300)
(39.0916 31.1745 300)
(39.0916 31.1745 0)
(13.3018 -48.1981 300)
(13.3018 -48.1981 0)
(37.6536 32.8969 300)
(37.6536 32.8969 0)
(15.4508 -47.5528 300)
(15.4508 -47.5528 0)
(36.1397 34.5531 300)
(36.1397 34.5531 0)
(17.5687 -46.8117 300)
(17.5687 -46.8117 0)
(34.5531 36.1397 300)
(34.5531 36.1397 0)
(19.6513 -45.9764 300)
(19.6513 -45.9764 0)
(32.8969 37.6536 300)
(32.8969 37.6536 0)
(31.1745 39.0916 0)
(21.6942 -45.0484 300)
(21.6942 -45.0484 0)
(31.1745 39.0916 300)
(23.6934 -44.0298 300)
(23.6934 -44.0298 0)
(29.3893 40.4509 300)
(29.3893 40.4509 0)
(27.5448 41.7287 0)
(25.645 -42.9224 300)
(25.645 -42.9224 0)
(27.5448 -41.7287 0)
(27.5448 -41.7287 300)
(27.5448 41.7287 300)
(25.645 42.9224 300)
(25.645 42.9224 0)
(29.3893 -40.4509 300)
(29.3893 -40.4509 0)
(23.6934 44.0298 0)
(31.1745 -39.0916 300)
(31.1745 -39.0916 0)
(23.6934 44.0298 300)
(32.8969 -37.6536 300)
(32.8969 -37.6536 0)
(21.6942 45.0484 300)
(21.6942 45.0484 0)
(19.6513 45.9764 0)
(34.5531 -36.1397 300)
(34.5531 -36.1397 0)
(19.6513 45.9764 300)
(36.1397 -34.5531 300)
(36.1397 -34.5531 0)
(17.5687 46.8117 300)
(17.5687 46.8117 0)
(15.4508 47.5528 0)
(37.6536 -32.8969 300)
(37.6536 -32.8969 0)
(15.4508 47.5528 300)
(39.0916 -31.1745 300)
(39.0916 -31.1745 0)
(40.4509 -29.3893 0)
(13.3018 48.1981 300)
(13.3018 48.1981 0)
(11.126 48.7464 0)
(40.4509 -29.3893 300)
(11.126 48.7464 300)
(41.7287 -27.5448 300)
(41.7287 -27.5448 0)
(8.92785 49.1965 300)
(8.92785 49.1965 0)
(6.71166 49.5475 0)
(42.9224 -25.645 300)
(42.9224 -25.645 0)
(6.71166 49.5475 300)
(44.0298 -23.6934 300)
(44.0298 -23.6934 0)
(4.48197 49.7987 300)
(4.48197 49.7987 0)
(2.24324 49.9497 0)
(45.0484 -21.6942 300)
(45.0484 -21.6942 0)
(2.24324 49.9497 300)
(45.9764 -19.6513 300)
(45.9764 -19.6513 0)
(3.06162e-15 50 300)
(3.06162e-15 50 0)
(-2.24324 49.9497 0)
(46.8117 -17.5687 300)
(46.8117 -17.5687 0)
(47.5528 -15.4508 0)
(-2.24324 49.9497 300)
(47.5528 -15.4508 300)
(-4.48197 49.7987 300)
(-4.48197 49.7987 0)
(48.1981 -13.3018 300)
(-6.71166 49.5475 0)
(48.1981 -13.3018 0)
(-6.71166 49.5475 300)
(48.7464 -11.126 300)
(-8.92785 49.1965 0)
(48.7464 -11.126 0)
(49.1965 -8.92785 300)
(-8.92785 49.1965 300)
(49.1965 -8.92785 0)
(-11.126 48.7464 300)
(-11.126 48.7464 0)
(49.5475 -6.71166 300)
(49.5475 -6.71166 0)
(-13.3018 48.1981 300)
(-13.3018 48.1981 0)
(49.7987 -4.48197 300)
(49.7987 -4.48197 0)
(49.9497 -2.24324 300)
(49.9497 -2.24324 0)
(-15.4508 47.5528 300)
(-15.4508 47.5528 0)
(-17.5687 46.8117 0)
(-17.5687 46.8117 300)
(-19.6513 45.9764 300)
(-19.6513 45.9764 0)
(-21.6942 45.0484 300)
(-21.6942 45.0484 0)
(-23.6934 44.0298 300)
(-23.6934 44.0298 0)
(-25.645 42.9224 0)
(-25.645 42.9224 300)
(-27.5448 41.7287 300)
(-27.5448 41.7287 0)
(-29.3893 40.4509 300)
(-29.3893 40.4509 0)
(-31.1745 39.0916 300)
(-31.1745 39.0916 0)
(-32.8969 37.6536 0)
(-32.8969 37.6536 300)
(-34.5531 36.1397 300)
(-34.5531 36.1397 0)
(-36.1397 34.5531 300)
(-36.1397 34.5531 0)
(-37.6536 32.8969 300)
(-37.6536 32.8969 0)
(-39.0916 31.1745 0)
(-39.0916 31.1745 300)
(-40.4509 29.3893 300)
(-40.4509 29.3893 0)
(-41.7287 27.5448 300)
(-41.7287 27.5448 0)
(-42.9224 25.645 300)
(-42.9224 25.645 0)
(-44.0298 23.6934 0)
(-44.0298 23.6934 300)
(-45.0484 21.6942 300)
(-45.0484 21.6942 0)
(-45.9764 19.6513 300)
(-45.9764 19.6513 0)
(-46.8117 17.5687 300)
(-46.8117 17.5687 0)
(-47.5528 15.4508 0)
(-47.5528 15.4508 300)
(-48.1981 13.3018 300)
(-48.1981 13.3018 0)
(-48.7464 11.126 300)
(-48.7464 11.126 0)
(-49.1965 8.92785 300)
(-49.1965 8.92785 0)
(-49.5475 6.71166 0)
(-49.5475 6.71166 300)
(-49.7987 4.48197 300)
(-49.7987 4.48197 0)
(-49.9497 2.24324 300)
(-49.9497 2.24324 0)
(-50 6.12323e-15 300)
(-50 6.12323e-15 0)
(-49.9497 -2.24324 0)
(-49.9497 -2.24324 300)
(-49.7987 -4.48197 300)
(-49.7987 -4.48197 0)
(-49.5475 -6.71166 300)
(-49.5475 -6.71166 0)
(-49.1965 -8.92785 300)
(-49.1965 -8.92785 0)
(-48.7464 -11.126 0)
(-48.7464 -11.126 300)
(-48.1981 -13.3018 300)
(-48.1981 -13.3018 0)
(-47.5528 -15.4508 300)
(-47.5528 -15.4508 0)
(-46.8117 -17.5687 0)
(-46.8117 -17.5687 300)
(-45.9764 -19.6513 300)
(-45.9764 -19.6513 0)
(-45.0484 -21.6942 300)
(-45.0484 -21.6942 0)
(-44.0298 -23.6934 300)
(-44.0298 -23.6934 0)
(-42.9224 -25.645 300)
(-42.9224 -25.645 0)
(-41.7287 -27.5448 300)
(-41.7287 -27.5448 0)
(-40.4509 -29.3893 300)
(-40.4509 -29.3893 0)
(-39.0916 -31.1745 300)
(-39.0916 -31.1745 0)
(-37.6536 -32.8969 0)
(-37.6536 -32.8969 300)
(-36.1397 -34.5531 300)
(-36.1397 -34.5531 0)
(-34.5531 -36.1397 300)
(-34.5531 -36.1397 0)
(-32.8969 -37.6536 300)
(-32.8969 -37.6536 0)
(-31.1745 -39.0916 300)
(-31.1745 -39.0916 0)
(-29.3893 -40.4509 300)
(-29.3893 -40.4509 0)
)

// edges

560
(
(1 2)
(3 0)
(4 5)
(7 6)
(10 8)
(11 9)
(13 12)
(15 14)
(17 16)
(19 18)
(21 20)
(23 22)
(26 24)
(27 25)
(29 28)
(31 30)
(33 32)
(36 35)
(34 37)
(39 38)
(41 40)
(43 42)
(45 44)
(47 46)
(49 48)
(51 50)
(53 52)
(55 54)
(57 56)
(59 58)
(61 60)
(63 62)
(65 64)
(66 67)
(69 68)
(71 70)
(73 72)
(75 74)
(77 76)
(79 78)
(81 80)
(83 82)
(85 84)
(88 87)
(86 89)
(91 90)
(93 92)
(96 95)
(97 98)
(94 99)
(101 100)
(103 102)
(106 105)
(104 107)
(109 108)
(111 110)
(114 113)
(112 115)
(117 116)
(119 118)
(122 121)
(120 123)
(125 124)
(128 127)
(126 130)
(129 131)
(133 132)
(135 134)
(138 137)
(136 139)
(141 140)
(143 142)
(146 145)
(144 147)
(149 148)
(151 150)
(154 153)
(152 156)
(155 157)
(159 158)
(162 160)
(161 163)
(166 164)
(165 168)
(169 167)
(171 170)
(173 172)
(175 174)
(177 176)
(179 178)
(181 180)
(182 183)
(185 184)
(187 186)
(189 188)
(190 191)
(193 192)
(195 194)
(197 196)
(198 199)
(201 200)
(203 202)
(205 204)
(206 207)
(209 208)
(211 210)
(213 212)
(214 215)
(217 216)
(219 218)
(221 220)
(222 223)
(225 224)
(227 226)
(229 228)
(230 231)
(233 232)
(235 234)
(237 236)
(238 239)
(241 240)
(243 242)
(245 244)
(246 247)
(249 248)
(251 250)
(252 253)
(255 254)
(257 256)
(259 258)
(261 260)
(263 262)
(265 264)
(267 266)
(268 269)
(271 270)
(273 272)
(275 274)
(277 276)
(279 278)
(2 0)
(4 0)
(13 16)
(17 20)
(21 24)
(28 26)
(34 32)
(38 36)
(40 34)
(42 39)
(44 41)
(54 51)
(58 55)
(62 61)
(72 69)
(74 71)
(78 75)
(82 79)
(84 81)
(86 84)
(92 86)
(95 91)
(104 100)
(108 106)
(110 104)
(120 118)
(121 117)
(120 127)
(132 126)
(129 134)
(136 134)
(145 141)
(152 150)
(149 153)
(155 153)
(152 158)
(155 160)
(161 158)
(166 167)
(170 165)
(169 172)
(180 175)
(11 179)
(184 182)
(192 190)
(204 203)
(206 204)
(211 212)
(214 212)
(219 220)
(222 220)
(222 224)
(227 228)
(230 228)
(238 236)
(238 240)
(244 243)
(246 248)
(250 249)
(254 252)
(255 256)
(257 258)
(263 264)
(265 266)
(268 270)
(275 276)
(4 6)
(8 9)
(7 12)
(14 10)
(18 15)
(19 22)
(23 25)
(30 27)
(32 29)
(31 35)
(46 43)
(45 48)
(50 47)
(52 49)
(56 53)
(60 57)
(64 59)
(66 62)
(68 65)
(70 66)
(76 73)
(80 77)
(87 83)
(90 88)
(94 92)
(97 95)
(100 94)
(102 97)
(105 103)
(112 110)
(113 109)
(116 114)
(118 112)
(124 122)
(126 124)
(129 127)
(137 133)
(140 138)
(136 142)
(144 142)
(146 148)
(144 150)
(162 164)
(165 163)
(174 171)
(173 176)
(177 178)
(182 180)
(186 185)
(188 187)
(190 188)
(194 193)
(196 195)
(198 196)
(200 198)
(202 201)
(206 208)
(209 210)
(214 216)
(217 218)
(225 226)
(230 232)
(233 234)
(235 236)
(242 241)
(246 244)
(252 250)
(259 260)
(261 262)
(268 266)
(271 272)
(273 274)
(277 278)
(279 1)
(0 1)
(2 3)
(3 4)
(5 0)
(6 5)
(4 7)
(9 10)
(8 11)
(12 6)
(7 13)
(10 15)
(14 8)
(16 12)
(13 17)
(15 19)
(18 14)
(20 16)
(17 21)
(22 18)
(19 23)
(24 20)
(25 22)
(21 26)
(23 27)
(26 29)
(28 24)
(27 31)
(30 25)
(29 33)
(33 34)
(32 28)
(35 30)
(31 36)
(37 32)
(36 39)
(38 35)
(34 41)
(40 37)
(39 43)
(42 38)
(41 45)
(44 40)
(43 47)
(46 42)
(48 44)
(45 49)
(47 51)
(50 46)
(49 53)
(52 48)
(51 55)
(53 57)
(54 50)
(56 52)
(55 59)
(57 61)
(58 54)
(60 56)
(61 63)
(59 65)
(63 66)
(62 60)
(64 58)
(67 62)
(65 69)
(68 64)
(66 71)
(70 67)
(69 73)
(72 68)
(71 75)
(74 70)
(73 77)
(76 72)
(75 79)
(78 74)
(77 81)
(80 76)
(79 83)
(82 78)
(81 85)
(85 86)
(84 80)
(83 88)
(87 82)
(89 84)
(88 91)
(90 87)
(86 93)
(93 94)
(91 96)
(92 89)
(96 97)
(95 90)
(98 95)
(99 92)
(94 101)
(97 103)
(101 104)
(100 99)
(102 98)
(103 106)
(107 100)
(105 102)
(106 109)
(104 111)
(111 112)
(108 105)
(110 107)
(109 114)
(113 108)
(115 110)
(114 117)
(112 119)
(119 120)
(116 113)
(118 115)
(117 122)
(121 116)
(123 118)
(122 125)
(125 126)
(127 123)
(124 121)
(120 128)
(128 129)
(130 124)
(131 127)
(126 133)
(132 130)
(134 131)
(129 135)
(135 136)
(133 138)
(137 132)
(139 134)
(138 141)
(140 137)
(142 139)
(136 143)
(143 144)
(141 146)
(145 140)
(147 142)
(148 145)
(146 149)
(150 147)
(144 151)
(151 152)
(153 148)
(149 154)
(154 155)
(156 150)
(157 153)
(158 156)
(152 159)
(160 157)
(159 161)
(155 162)
(163 158)
(164 160)
(161 165)
(162 166)
(167 164)
(168 163)
(166 169)
(165 171)
(172 167)
(170 168)
(169 173)
(171 175)
(176 172)
(173 177)
(174 170)
(178 176)
(177 179)
(175 181)
(181 182)
(180 174)
(179 9)
(11 178)
(183 180)
(182 185)
(184 183)
(185 187)
(186 184)
(187 189)
(189 190)
(188 186)
(191 188)
(190 193)
(192 191)
(193 195)
(194 192)
(195 197)
(197 198)
(196 194)
(199 196)
(198 201)
(200 199)
(201 203)
(202 200)
(203 205)
(205 206)
(204 202)
(207 204)
(208 207)
(206 209)
(210 208)
(209 211)
(212 210)
(211 213)
(213 214)
(215 212)
(216 215)
(214 217)
(218 216)
(217 219)
(220 218)
(219 221)
(221 222)
(223 220)
(224 223)
(222 225)
(226 224)
(225 227)
(228 226)
(227 229)
(229 230)
(231 228)
(232 231)
(230 233)
(234 232)
(233 235)
(236 234)
(235 237)
(237 238)
(239 236)
(240 239)
(238 241)
(241 243)
(242 240)
(243 245)
(245 246)
(244 242)
(247 244)
(248 247)
(246 249)
(249 251)
(251 252)
(250 248)
(253 250)
(252 255)
(254 253)
(256 254)
(255 257)
(258 256)
(257 259)
(260 258)
(259 261)
(262 260)
(261 263)
(264 262)
(263 265)
(266 264)
(265 267)
(267 268)
(269 266)
(270 269)
(268 271)
(272 270)
(271 273)
(274 272)
(273 275)
(276 274)
(275 277)
(278 276)
(277 279)
(1 278)
(279 2)
)

// concaveStart mixedStart nonFeatureStart
0 0 280
// internalStart flatStart openStart multipleStart
140 140 280 560
// normals

280
(
(-0.532032 -0.846725 0)
(-0.532032 -0.846725 -0)
(-0.493509 -0.869741 -0)
(-0.493509 -0.869741 -0)
(-0.45399 -0.891007 0)
(-0.45399 -0.891007 -0)
(0.999748 0.0224379 0)
(0.999748 0.0224379 0)
(-0.413558 -0.910478 0)
(-0.413558 -0.910478 -0)
(0.997735 0.0672696 0)
(0.997735 0.0672696 0)
(-0.372295 -0.928115 0)
(-0.372295 -0.928115 -0)
(0.993712 0.111964 0)
(0.993712 0.111964 0)
(-0.330279 -0.943883 0)
(-0.330279 -0.943883 -0)
(0.987688 0.156435 0)
(0.987688 0.156435 0)
(-0.287599 -0.957751 0)
(0.979675 0.20059 0)
(-0.287599 -0.957751 -0)
(0.979675 0.20059 0)
(-0.24434 -0.96969 -0)
(-0.24434 -0.96969 0)
(0.96969 0.24434 0)
(0.96969 0.24434 0)
(-0.20059 -0.979675 -0)
(-0.156435 -0.987688 -0)
(-0.20059 -0.979675 0)
(0.957751 0.287599 0)
(0.957751 0.287599 0)
(-0.156435 -0.987688 -0)
(0.943883 0.330279 0)
(0.943883 0.330279 0)
(-0.111964 -0.993712 -0)
(-0.111964 -0.993712 0)
(0.928115 0.372295 0)
(0.928115 0.372295 0)
(-0.0672696 -0.997735 -0)
(-0.0672696 -0.997735 0)
(0.910478 0.413558 0)
(0.910478 0.413558 0)
(-0.0224379 -0.999748 0)
(-0.0224379 -0.999748 -0)
(0.891007 0.45399 0)
(0.891007 0.45399 0)
(0.0224379 -0.999748 0)
(0.0224379 -0.999748 0)
(0.869741 0.493509 0)
(0.0672696 -0.997735 0)
(0.869741 0.493509 0)
(0.0672696 -0.997735 0)
(0.846725 0.532032 0)
(0.111964 -0.993712 0)
(0.846725 0.532032 0)
(0.111964 -0.993712 0)
(0.156435 -0.987688 0)
(0.822002 0.569484 0)
(0.20059 -0.979675 0)
(0.156435 -0.987688 0)
(0.822002 0.569484 0)
(0.20059 -0.979675 0)
(0.795624 0.60579 0)
(0.795624 0.60579 0)
(0.24434 -0.96969 0)
(0.24434 -0.96969 0)
(0.767644 0.640877 0)
(0.767644 0.640877 0)
(0.287599 -0.957751 0)
(0.287599 -0.957751 0)
(0.738119 0.67467 0)
(0.738119 0.67467 0)
(0.330279 -0.943883 0)
(0.330279 -0.943883 0)
(0.707107 0.707107 0)
(0.707107 0.707107 0)
(0.372295 -0.928115 0)
(0.372295 -0.928115 0)
(0.67467 0.738119 0)
(0.640877 0.767644 0)
(0.67467 0.738119 0)
(0.413558 -0.910478 0)
(0.413558 -0.910478 0)
(0.640877 0.767644 0)
(0.45399 -0.891007 0)
(0.45399 -0.891007 0)
(0.60579 0.795624 0)
(0.569484 0.822002 0)
(0.493509 -0.869741 0)
(0.60579 0.795624 0)
(0.532032 -0.846725 0)
(0.493509 -0.869741 0)
(0.532032 -0.846725 0)
(0.569484 0.822002 0)
(0.532032 0.846725 0)
(0.569484 -0.822002 0)
(0.493509 0.869741 0)
(0.532032 0.846725 0)
(0.569484 -0.822002 0)
(0.60579 -0.795624 0)
(0.493509 0.869741 0)
(0.60579 -0.795624 0)
(0.640877 -0.767644 0)
(0.45399 0.891007 0)
(0.413558 0.910478 0)
(0.640877 -0.767644 0)
(0.45399 0.891007 0)
(0.67467 -0.738119 0)
(0.67467 -0.738119 0)
(0.413558 0.910478 0)
(0.707107 -0.707107 0)
(0.372295 0.928115 0)
(0.330279 0.943883 0)
(0.707107 -0.707107 0)
(0.372295 0.928115 0)
(0.738119 -0.67467 0)
(0.738119 -0.67467 0)
(0.330279 0.943883 0)
(0.767644 -0.640877 0)
(0.795624 -0.60579 0)
(0.287599 0.957751 0)
(0.767644 -0.640877 0)
(0.287599 0.957751 0)
(0.24434 0.96969 0)
(0.795624 -0.60579 0)
(0.24434 0.96969 0)
(0.822002 -0.569484 0)
(0.822002 -0.569484 0)
(0.20059 0.979675 0)
(0.20059 0.979675 0)
(0.156435 0.987688 0)
(0.846725 -0.532032 0)
(0.846725 -0.532032 0)
(0.156435 0.987688 0)
(0.869741 -0.493509 0)
(0.869741 -0.493509 0)
(0.111964 0.993712 0)
(0.111964 0.993712 0)
(0.0672696 0.997735 0)
(0.891007 -0.45399 0)
(0.891007 -0.45399 0)
(0.0672696 0.997735 0)
(0.910478 -0.413558 0)
(0.910478 -0.413558 0)
(0.0224379 0.999748 0)
(0.0224379 0.999748 0)
(-0.0224379 0.999748 0)
(0.928115 -0.372295 0)
(0.928115 -0.372295 0)
(0.943883 -0.330279 0)
(-0.0224379 0.999748 0)
(0.943883 -0.330279 0)
(-0.0672696 0.997735 0)
(-0.0672696 0.997735 0)
(0.957751 -0.287599 0)
(-0.111964 0.993712 0)
(0.957751 -0.287599 0)
(-0.111964 0.993712 0)
(0.96969 -0.24434 0)
(-0.156435 0.987688 0)
(0.96969 -0.24434 0)
(0.979675 -0.20059 0)
(-0.156435 0.987688 0)
(0.979675 -0.20059 0)
(-0.20059 0.979675 0)
(0.987688 -0.156435 0)
(-0.20059 0.979675 0)
(0.987688 -0.156435 0)
(-0.24434 0.96969 0)
(0.993712 -0.111964 0)
(0.993712 -0.111964 0)
(-0.24434 0.96969 0)
(0.997735 -0.0672696 0)
(0.997735 -0.0672696 0)
(-0.287599 0.957751 0)
(-0.330279 0.943883 0)
(-0.287599 0.957751 0)
(0.999748 -0.0224379 0)
(0.999748 -0.0224379 0)
(-0.330279 0.943883 0)
(-0.372295 0.928115 0)
(-0.372295 0.928115 0)
(-0.413558 0.910478 0)
(-0.413558 0.910478 0)
(-0.45399 0.891007 0)
(-0.493509 0.869741 0)
(-0.45399 0.891007 0)
(-0.493509 0.869741 0)
(-0.532032 0.846725 0)
(-0.532032 0.846725 0)
(-0.569484 0.822002 0)
(-0.569484 0.822002 0)
(-0.60579 0.795624 0)
(-0.640877 0.767644 0)
(-0.60579 0.795624 0)
(-0.640877 0.767644 0)
(-0.67467 0.738119 0)
(-0.67467 0.738119 0)
(-0.707107 0.707107 0)
(-0.707107 0.707107 0)
(-0.738119 0.67467 0)
(-0.767644 0.640877 0)
(-0.738119 0.67467 0)
(-0.767644 0.640877 0)
(-0.795624 0.60579 0)
(-0.795624 0.60579 0)
(-0.822002 0.569484 0)
(-0.822002 0.569484 0)
(-0.846725 0.532032 0)
(-0.846725 0.532032 0)
(-0.869741 0.493509 0)
(-0.869741 0.493509 0)
(-0.891007 0.45399 0)
(-0.891007 0.45399 0)
(-0.910478 0.413558 0)
(-0.910478 0.413558 0)
(-0.928115 0.372295 0)
(-0.928115 0.372295 0)
(-0.943883 0.330279 0)
(-0.943883 0.330279 0)
(-0.957751 0.287599 0)
(-0.957751 0.287599 0)
(-0.96969 0.24434 0)
(-0.96969 0.24434 0)
(-0.979675 0.20059 0)
(-0.979675 0.20059 0)
(-0.987688 0.156435 0)
(-0.987688 0.156435 0)
(-0.993712 0.111964 0)
(-0.993712 0.111964 0)
(-0.997735 0.0672696 0)
(-0.997735 0.0672696 0)
(-0.999748 0.0224379 0)
(-0.999748 0.0224379 0)
(-0.999748 -0.0224379 -0)
(-0.999748 -0.0224379 -0)
(-0.997735 -0.0672696 0)
(-0.997735 -0.0672696 -0)
(-0.993712 -0.111964 -0)
(-0.993712 -0.111964 0)
(-0.987688 -0.156435 -0)
(-0.979675 -0.20059 -0)
(-0.987688 -0.156435 0)
(-0.979675 -0.20059 -0)
(-0.96969 -0.24434 0)
(-0.96969 -0.24434 -0)
(-0.957751 -0.287599 -0)
(-0.943883 -0.330279 -0)
(-0.957751 -0.287599 0)
(-0.943883 -0.330279 -0)
(-0.928115 -0.372295 -0)
(-0.928115 -0.372295 0)
(-0.910478 -0.413558 0)
(-0.910478 -0.413558 -0)
(-0.891007 -0.45399 0)
(-0.891007 -0.45399 -0)
(-0.869741 -0.493509 0)
(-0.869741 -0.493509 -0)
(-0.846725 -0.532032 0)
(-0.846725 -0.532032 -0)
(-0.822002 -0.569484 0)
(-0.822002 -0.569484 -0)
(-0.795624 -0.60579 0)
(-0.795624 -0.60579 -0)
(-0.767644 -0.640877 -0)
(-0.767644 -0.640877 -0)
(-0.738119 -0.67467 0)
(-0.738119 -0.67467 -0)
(-0.707107 -0.707107 0)
(-0.707107 -0.707107 -0)
(-0.67467 -0.738119 0)
(-0.67467 -0.738119 -0)
(-0.640877 -0.767644 0)
(-0.640877 -0.767644 -0)
(-0.60579 -0.795624 0)
(-0.60579 -0.795624 -0)
(-0.569484 -0.822002 0)
(-0.569484 -0.822002 -0)
)

// normal volume types

280
(
0
0
0
0
0
0
0
0
0
0
0
0
0
0
0
0
0
0
0
0
0
0
0
0
0
0
0
0
0
0
0
0
0
0
0
0
0
0
0
0
0
0
0
0
0
0
0
0
0
0
0
0
0
0
0
0
0
0
0
0
0
0
0
0
0
0
0
0
0
0
0
0
0
0
0
0
0
0
0
0
0
0
0
0
0
0
0
0
0
0
0
0
0
0
0
0
0
0
0
0
0
0
0
0
0
0
0
0
0
0
0
0
0
0
0
0
0
0
0
0
0
0
0
0
0
0
0
0
0
0
0
0
0
0
0
0
0
0
0
0
0
0
0
0
0
0
0
0
0
0
0
0
0
0
0
0
0
0
0
0
0
0
0
0
0
0
0
0
0
0
0
0
0
0
0
0
0
0
0
0
0
0
0
0
0
0
0
0
0
0
0
0
0
0
0
0
0
0
0
0
0
0
0
0
0
0
0
0
0
0
0
0
0
0
0
0
0
0
0
0
0
0
0
0
0
0
0
0
0
0
0
0
0
0
0
0
0
0
0
0
0
0
0
0
0
0
0
0
0
0
0
0
0
0
0
0
0
0
0
0
0
0
0
0
0
0
0
0
0
0
0
0
0
0
0
0
0
0
0
0
)

// normalDirections

560
(
2(1 -1)
2(1 -1)
2(1 -1)
2(1 -1)
2(1 -1)
2(1 -1)
2(1 -1)
2(1 -1)
2(1 -1)
2(1 -1)
2(1 -1)
2(1 -1)
2(1 -1)
2(1 -1)
2(1 -1)
2(1 -1)
2(1 -1)
2(1 -1)
2(1 -1)
2(1 -1)
2(1 -1)
2(1 -1)
2(1 -1)
2(1 -1)
2(1 -1)
2(1 -1)
2(1 -1)
2(1 -1)
2(1 -1)
2(1 -1)
2(1 -1)
2(1 -1)
2(1 -1)
2(1 -1)
2(1 -1)
2(1 -1)
2(1 -1)
2(1 -1)
2(1 -1)
2(1 -1)
2(1 -1)
2(1 -1)
2(1 -1)
2(1 -1)
2(1 -1)
2(1 -1)
2(1 -1)
2(1 -1)
2(1 -1)
2(1 -1)
2(1 -1)
2(1 -1)
2(1 -1)
2(1 -1)
2(1 -1)
2(1 -1)
2(1 -1)
2(1 -1)
2(1 -1)
2(1 -1)
2(1 -1)
2(1 -1)
2(1 -1)
2(1 -1)
2(1 -1)
2(1 -1)
2(1 -1)
2(1 -1)
2(1 -1)
2(1 -1)
2(1 -1)
2(1 -1)
2(1 -1)
2(1 -1)
2(1 -1)
2(1 -1)
2(1 -1)
2(1 -1)
2(1 -1)
2(1 -1)
2(1 -1)
2(1 -1)
2(1 -1)
2(1 -1)
2(1 -1)
2(1 -1)
2(1 -1)
2(1 -1)
2(1 -1)
2(1 -1)
2(1 -1)
2(1 -1)
2(1 -1)
2(1 -1)
2(1 -1)
2(1 -1)
2(1 -1)
2(1 -1)
2(1 -1)
2(1 -1)
2(1 -1)
2(1 -1)
2(1 -1)
2(1 -1)
2(1 -1)
2(1 -1)
2(1 -1)
2(1 -1)
2(1 -1)
2(1 -1)
2(1 -1)
2(1 -1)
2(1 -1)
2(1 -1)
2(1 -1)
2(1 -1)
2(1 -1)
2(1 -1)
2(1 -1)
2(1 -1)
2(1 -1)
2(1 -1)
2(1 -1)
2(1 -1)
2(1 -1)
2(1 -1)
2(1 -1)
2(1 -1)
2(1 -1)
2(1 -1)
2(1 -1)
2(1 -1)
2(1 -1)
2(1 -1)
2(1 -1)
2(1 -1)
2(1 -1)
2(1 -1)
2(1 -1)
2(1 -1)
2(1 -1)
2(1 -1)
2(1 -1)
2(1 -1)
2(1 -1)
2(1 -1)
2(1 -1)
2(1 -1)
2(1 -1)
2(1 -1)
2(1 -1)
2(1 -1)
2(1 -1)
2(1 -1)
2(1 -1)
2(1 -1)
2(1 -1)
2(1 -1)
2(1 -1)
2(1 -1)
2(1 -1)
2(1 -1)
2(1 -1)
2(1 -1)
2(1 -1)
2(1 -1)
2(1 -1)
2(1 -1)
2(1 -1)
2(1 -1)
2(1 -1)
2(1 -1)
2(1 -1)
2(1 -1)
2(1 -1)
2(1 -1)
2(1 -1)
2(1 -1)
2(1 -1)
2(1 -1)
2(1 -1)
2(1 -1)
2(1 -1)
2(1 -1)
2(1 -1)
2(1 -1)
2(1 -1)
2(1 -1)
2(1 -1)
2(1 -1)
2(1 -1)
2(1 -1)
2(1 -1)
2(1 -1)
2(1 -1)
2(1 -1)
2(1 -1)
2(1 -1)
2(1 -1)
2(1 -1)
2(1 -1)
2(1 -1)
2(1 -1)
2(1 -1)
2(1 -1)
2(1 -1)
2(1 -1)
2(1 -1)
2(1 -1)
2(1 -1)
2(1 -1)
2(1 -1)
2(1 -1)
2(1 -1)
2(1 -1)
2(1 -1)
2(1 -1)
2(1 -1)
2(1 -1)
2(1 -1)
2(1 -1)
2(1 -1)
2(1 -1)
2(1 -1)
2(1 -1)
2(1 -1)
2(1 -1)
2(1 -1)
2(1 -1)
2(1 -1)
2(1 -1)
2(1 -1)
2(1 -1)
2(1 -1)
2(1 -1)
2(1 -1)
2(1 -1)
2(1 -1)
2(1 -1)
2(1 -1)
2(1 -1)
2(1 -1)
2(1 -1)
2(1 -1)
2(1 -1)
2(1 -1)
2(1 -1)
2(1 -1)
2(1 -1)
2(1 -1)
2(1 -1)
2(1 -1)
2(1 -1)
2(1 -1)
2(1 -1)
2(1 -1)
2(1 -1)
2(1 -1)
2(1 -1)
2(1 -1)
2(1 -1)
2(1 -1)
2(1 -1)
2(1 -1)
2(1 -1)
2(1 -1)
2(1 -1)
2(1 -1)
2(1 -1)
2(1 -1)
2(1 -1)
2(1 -1)
2(1 -1)
2(1 -1)
2(1 -1)
2(1 -1)
2(1 -1)
2(1 -1)
2(1 -1)
2(1 -1)
1(1)
1(1)
1(1)
1(1)
1(1)
1(1)
1(1)
1(1)
1(1)
1(1)
1(1)
1(1)
1(1)
1(1)
1(1)
1(1)
1(1)
1(1)
1(1)
1(1)
1(1)
1(1)
1(1)
1(1)
1(1)
1(1)
1(1)
1(1)
1(1)
1(1)
1(1)
1(1)
1(1)
1(1)
1(1)
1(1)
1(1)
1(1)
1(1)
1(1)
1(1)
1(1)
1(1)
1(1)
1(1)
1(1)
1(1)
1(1)
1(1)
1(1)
1(1)
1(1)
1(1)
1(1)
1(1)
1(1)
1(1)
1(1)
1(1)
1(1)
1(1)
1(1)
1(1)
1(1)
1(1)
1(1)
1(1)
1(1)
1(1)
1(1)
1(1)
1(1)
1(1)
1(1)
1(1)
1(1)
1(1)
1(1)
1(1)
1(1)
1(1)
1(1)
1(1)
1(1)
1(1)
1(1)
1(1)
1(1)
1(1)
1(1)
1(1)
1(1)
1(1)
1(1)
1(1)
1(1)
1(1)
1(1)
1(1)
1(1)
1(1)
1(1)
1(1)
1(1)
1(1)
1(1)
1(1)
1(1)
1(1)
1(1)
1(1)
1(1)
1(1)
1(1)
1(1)
1(1)
1(1)
1(1)
1(1)
1(1)
1(1)
1(1)
1(1)
1(1)
1(1)
1(1)
1(1)
1(1)
1(1)
1(1)
1(1)
1(1)
1(1)
1(1)
1(1)
1(1)
1(1)
1(1)
1(1)
1(1)
1(1)
1(1)
1(1)
1(1)
1(1)
1(1)
1(1)
1(1)
1(1)
1(1)
1(1)
1(1)
1(1)
1(1)
1(1)
1(1)
1(1)
1(1)
1(1)
1(1)
1(1)
1(1)
1(1)
1(1)
1(1)
1(1)
1(1)
1(1)
1(1)
1(1)
1(1)
1(1)
1(1)
1(1)
1(1)
1(1)
1(1)
1(1)
1(1)
1(1)
1(1)
1(1)
1(1)
1(1)
1(1)
1(1)
1(1)
1(1)
1(1)
1(1)
1(1)
1(1)
1(1)
1(1)
1(1)
1(1)
1(1)
1(1)
1(1)
1(1)
1(1)
1(1)
1(1)
1(1)
1(1)
1(1)
1(1)
1(1)
1(1)
1(1)
1(1)
1(1)
1(1)
1(1)
1(1)
1(1)
1(1)
1(1)
1(1)
1(1)
1(1)
1(1)
1(1)
1(1)
1(1)
1(1)
1(1)
1(1)
1(1)
1(1)
1(1)
1(1)
1(1)
1(1)
1(1)
1(1)
1(1)
1(1)
1(1)
1(1)
1(1)
1(1)
1(1)
1(1)
1(1)
1(1)
1(1)
1(1)
1(1)
1(1)
1(1)
1(1)
1(1)
1(1)
1(1)
1(1)
1(1)
1(1)
1(1)
1(1)
1(1)
1(1)
1(1)
1(1)
1(1)
1(1)
1(1)
1(1)
1(1)
1(1)
1(1)
1(1)
1(1)
1(1)
1(1)
1(1)
1(1)
1(1)
1(1)
1(1)
)

// edgeNormals

560
(
2(0 279)
2(1 2)
2(3 4)
2(5 8)
2(6 11)
2(7 179)
2(9 12)
2(10 15)
2(13 16)
2(14 18)
2(17 20)
2(19 21)
2(22 25)
2(23 27)
2(24 30)
2(26 31)
2(28 29)
2(32 35)
2(33 37)
2(34 39)
2(36 41)
2(38 43)
2(40 44)
2(42 47)
2(45 49)
2(46 52)
2(48 53)
2(50 56)
2(51 57)
2(54 62)
2(55 61)
2(58 60)
2(59 65)
2(63 67)
2(64 69)
2(66 71)
2(68 73)
2(70 75)
2(72 77)
2(74 79)
2(76 82)
2(78 84)
2(80 81)
2(83 87)
2(85 91)
2(86 93)
2(88 89)
2(90 92)
2(94 100)
2(95 99)
2(96 98)
2(97 103)
2(101 107)
2(102 108)
2(104 110)
2(105 106)
2(109 115)
2(111 116)
2(112 118)
2(113 114)
2(117 123)
2(119 122)
2(120 121)
2(124 125)
2(126 129)
2(127 130)
2(128 134)
2(131 132)
2(133 137)
2(135 138)
2(136 142)
2(139 140)
2(141 144)
2(143 146)
2(145 149)
2(147 148)
2(150 151)
2(152 154)
2(153 156)
2(155 157)
2(158 160)
2(159 161)
2(162 163)
2(164 168)
2(165 167)
2(166 173)
2(169 171)
2(170 178)
2(172 174)
2(175 180)
2(176 177)
2(181 183)
2(182 185)
2(184 188)
2(186 187)
2(189 191)
2(190 193)
2(192 196)
2(194 195)
2(197 199)
2(198 201)
2(200 204)
2(202 203)
2(205 206)
2(207 208)
2(209 210)
2(211 212)
2(213 214)
2(215 216)
2(217 218)
2(219 220)
2(221 222)
2(223 224)
2(225 226)
2(227 228)
2(229 230)
2(231 232)
2(233 234)
2(235 236)
2(237 238)
2(239 241)
2(240 244)
2(242 243)
2(245 246)
2(247 250)
2(248 249)
2(251 253)
2(252 254)
2(255 256)
2(257 258)
2(259 260)
2(261 262)
2(263 264)
2(265 266)
2(267 268)
2(269 270)
2(271 272)
2(273 274)
2(275 276)
2(277 278)
2(0 1)
2(2 3)
2(12 13)
2(16 17)
2(20 22)
2(24 25)
2(29 33)
2(34 35)
2(36 37)
2(38 39)
2(40 41)
2(50 52)
2(54 56)
2(58 61)
2(68 69)
2(70 71)
2(74 75)
2(78 79)
2(80 82)
2(81 85)
2(88 91)
2(90 93)
2(98 102)
2(104 107)
2(105 108)
2(114 119)
2(117 118)
2(122 124)
2(128 129)
2(130 131)
2(132 135)
2(141 142)
2(148 152)
2(149 150)
2(151 153)
2(154 155)
2(156 158)
2(157 159)
2(163 165)
2(166 168)
2(167 169)
2(176 178)
2(179 180)
2(182 183)
2(190 191)
2(202 204)
2(203 205)
2(210 211)
2(212 213)
2(218 219)
2(220 221)
2(222 223)
2(226 227)
2(228 229)
2(236 237)
2(238 239)
2(242 244)
2(246 247)
2(248 250)
2(252 253)
2(254 255)
2(256 257)
2(262 263)
2(264 265)
2(268 269)
2(274 275)
2(4 5)
2(6 7)
2(8 9)
2(10 11)
2(14 15)
2(18 19)
2(21 23)
2(26 27)
2(28 30)
2(31 32)
2(42 43)
2(44 45)
2(46 47)
2(48 49)
2(51 53)
2(55 57)
2(59 62)
2(60 63)
2(64 65)
2(66 67)
2(72 73)
2(76 77)
2(83 84)
2(86 87)
2(89 95)
2(92 94)
2(96 99)
2(97 100)
2(101 103)
2(106 111)
2(109 110)
2(112 115)
2(113 116)
2(120 123)
2(121 126)
2(125 127)
2(133 134)
2(136 137)
2(138 139)
2(140 143)
2(144 145)
2(146 147)
2(160 162)
2(161 164)
2(170 173)
2(171 172)
2(174 175)
2(177 181)
2(184 185)
2(186 188)
2(187 189)
2(192 193)
2(194 196)
2(195 197)
2(198 199)
2(200 201)
2(206 207)
2(208 209)
2(214 215)
2(216 217)
2(224 225)
2(230 231)
2(232 233)
2(234 235)
2(240 241)
2(243 245)
2(249 251)
2(258 259)
2(260 261)
2(266 267)
2(270 271)
2(272 273)
2(276 277)
2(278 279)
1(0)
1(1)
1(2)
1(3)
1(4)
1(5)
1(6)
1(7)
1(8)
1(9)
1(10)
1(11)
1(12)
1(13)
1(14)
1(15)
1(16)
1(17)
1(18)
1(19)
1(20)
1(21)
1(22)
1(23)
1(24)
1(25)
1(26)
1(27)
1(28)
1(29)
1(30)
1(31)
1(32)
1(33)
1(34)
1(35)
1(36)
1(37)
1(38)
1(39)
1(40)
1(41)
1(42)
1(43)
1(44)
1(45)
1(46)
1(47)
1(48)
1(49)
1(50)
1(51)
1(52)
1(53)
1(54)
1(55)
1(56)
1(57)
1(58)
1(59)
1(60)
1(61)
1(62)
1(63)
1(64)
1(65)
1(66)
1(67)
1(68)
1(69)
1(70)
1(71)
1(72)
1(73)
1(74)
1(75)
1(76)
1(77)
1(78)
1(79)
1(80)
1(81)
1(82)
1(83)
1(84)
1(85)
1(86)
1(87)
1(88)
1(89)
1(90)
1(91)
1(92)
1(93)
1(94)
1(95)
1(96)
1(97)
1(98)
1(99)
1(100)
1(101)
1(102)
1(103)
1(104)
1(105)
1(106)
1(107)
1(108)
1(109)
1(110)
1(111)
1(112)
1(113)
1(114)
1(115)
1(116)
1(117)
1(118)
1(119)
1(120)
1(121)
1(122)
1(123)
1(124)
1(125)
1(126)
1(127)
1(128)
1(129)
1(130)
1(131)
1(132)
1(133)
1(134)
1(135)
1(136)
1(137)
1(138)
1(139)
1(140)
1(141)
1(142)
1(143)
1(144)
1(145)
1(146)
1(147)
1(148)
1(149)
1(150)
1(151)
1(152)
1(153)
1(154)
1(155)
1(156)
1(157)
1(158)
1(159)
1(160)
1(161)
1(162)
1(163)
1(164)
1(165)
1(166)
1(167)
1(168)
1(169)
1(170)
1(171)
1(172)
1(173)
1(174)
1(175)
1(176)
1(177)
1(178)
1(179)
1(180)
1(181)
1(182)
1(183)
1(184)
1(185)
1(186)
1(187)
1(188)
1(189)
1(190)
1(191)
1(192)
1(193)
1(194)
1(195)
1(196)
1(197)
1(198)
1(199)
1(200)
1(201)
1(202)
1(203)
1(204)
1(205)
1(206)
1(207)
1(208)
1(209)
1(210)
1(211)
1(212)
1(213)
1(214)
1(215)
1(216)
1(217)
1(218)
1(219)
1(220)
1(221)
1(222)
1(223)
1(224)
1(225)
1(226)
1(227)
1(228)
1(229)
1(230)
1(231)
1(232)
1(233)
1(234)
1(235)
1(236)
1(237)
1(238)
1(239)
1(240)
1(241)
1(242)
1(243)
1(244)
1(245)
1(246)
1(247)
1(248)
1(249)
1(250)
1(251)
1(252)
1(253)
1(254)
1(255)
1(256)
1(257)
1(258)
1(259)
1(260)
1(261)
1(262)
1(263)
1(264)
1(265)
1(266)
1(267)
1(268)
1(269)
1(270)
1(271)
1(272)
1(273)
1(274)
1(275)
1(276)
1(277)
1(278)
1(279)
)

// featurePointNormals

280
(
2(1 2)
2(0 279)
2(0 279)
2(1 2)
2(3 4)
2(3 4)
2(5 8)
2(5 8)
2(6 11)
2(7 179)
2(6 11)
2(7 179)
2(9 12)
2(9 12)
2(10 15)
2(10 15)
2(13 16)
2(13 16)
2(14 18)
2(14 18)
2(17 20)
2(17 20)
2(19 21)
2(19 21)
2(22 25)
2(23 27)
2(22 25)
2(23 27)
2(24 30)
2(24 30)
2(26 31)
2(26 31)
2(28 29)
2(28 29)
2(33 37)
2(32 35)
2(32 35)
2(33 37)
2(34 39)
2(34 39)
2(36 41)
2(36 41)
2(38 43)
2(38 43)
2(40 44)
2(40 44)
2(42 47)
2(42 47)
2(45 49)
2(45 49)
2(46 52)
2(46 52)
2(48 53)
2(48 53)
2(50 56)
2(50 56)
2(51 57)
2(51 57)
2(54 62)
2(54 62)
2(55 61)
2(55 61)
2(58 60)
2(58 60)
2(59 65)
2(59 65)
2(63 67)
2(63 67)
2(64 69)
2(64 69)
2(66 71)
2(66 71)
2(68 73)
2(68 73)
2(70 75)
2(70 75)
2(72 77)
2(72 77)
2(74 79)
2(74 79)
2(76 82)
2(76 82)
2(78 84)
2(78 84)
2(80 81)
2(80 81)
2(85 91)
2(83 87)
2(83 87)
2(85 91)
2(86 93)
2(86 93)
2(88 89)
2(88 89)
2(95 99)
2(90 92)
2(90 92)
2(94 100)
2(94 100)
2(95 99)
2(96 98)
2(96 98)
2(97 103)
2(97 103)
2(102 108)
2(101 107)
2(101 107)
2(102 108)
2(104 110)
2(104 110)
2(105 106)
2(105 106)
2(111 116)
2(109 115)
2(109 115)
2(111 116)
2(112 118)
2(112 118)
2(113 114)
2(113 114)
2(119 122)
2(117 123)
2(117 123)
2(119 122)
2(120 121)
2(120 121)
2(126 129)
2(124 125)
2(124 125)
2(127 130)
2(126 129)
2(127 130)
2(128 134)
2(128 134)
2(131 132)
2(131 132)
2(135 138)
2(133 137)
2(133 137)
2(135 138)
2(136 142)
2(136 142)
2(139 140)
2(139 140)
2(143 146)
2(141 144)
2(141 144)
2(143 146)
2(145 149)
2(145 149)
2(147 148)
2(147 148)
2(152 154)
2(150 151)
2(150 151)
2(153 156)
2(152 154)
2(153 156)
2(155 157)
2(155 157)
2(158 160)
2(159 161)
2(158 160)
2(159 161)
2(162 163)
2(164 168)
2(162 163)
2(165 167)
2(164 168)
2(165 167)
2(166 173)
2(166 173)
2(169 171)
2(169 171)
2(170 178)
2(170 178)
2(172 174)
2(172 174)
2(175 180)
2(175 180)
2(176 177)
2(176 177)
2(181 183)
2(181 183)
2(182 185)
2(182 185)
2(184 188)
2(184 188)
2(186 187)
2(186 187)
2(189 191)
2(189 191)
2(190 193)
2(190 193)
2(192 196)
2(192 196)
2(194 195)
2(194 195)
2(197 199)
2(197 199)
2(198 201)
2(198 201)
2(200 204)
2(200 204)
2(202 203)
2(202 203)
2(205 206)
2(205 206)
2(207 208)
2(207 208)
2(209 210)
2(209 210)
2(211 212)
2(211 212)
2(213 214)
2(213 214)
2(215 216)
2(215 216)
2(217 218)
2(217 218)
2(219 220)
2(219 220)
2(221 222)
2(221 222)