/*--------------------------------*- C++ -*----------------------------------*\
| =========                 |                                                 |
| \\      /  F ield         | OpenFOAM: The Open Source CFD Toolbox           |
|  \\    /   O peration     | Version:  4.1                                   |
|   \\  /    A nd           | Web:      www.OpenFOAM.org                      |
|    \\/     M anipulation  |                                                 |
\*---------------------------------------------------------------------------*/
FoamFile
{
    version     2.0;
    format      ascii;
    class       extendedFeatureEdgeMesh;
    location    "constant/extendedFeatureEdgeMesh";
    object      Wand_Tankwand.extendedFeatureEdgeMesh;
}
// * * * * * * * * * * * * * * * * * * * * * * * * * * * * * * * * * * * * * //

// points

961
(
(3.06162e-14 500 2300)
(-212.377 452.654 300)
(-218.762 449.604 300)
(-7.07542 -499.95 300)
(3.46087e-12 -500 300)
(-212.975 452.373 2300)
(-206.533 455.351 2300)
(-2.36565 -499.994 2300)
(-9.46206 -499.91 2300)
(-225.102 446.463 300)
(500 -1.22465e-13 300)
(499.95 7.07542 300)
(-219.375 449.305 2300)
(7.07542 -499.95 300)
(4.73124 -499.978 2300)
(-231.397 443.233 300)
(499.8 14.1494 300)
(-225.73 446.146 2300)
(499.949 7.13974 2300)
(500 -1.22465e-13 2300)
(14.1494 -499.8 300)
(11.8272 -499.86 2300)
(-237.646 439.914 300)
(499.549 21.2206 300)
(-232.039 442.897 2300)
(499.796 14.278 2300)
(21.2206 -499.549 300)
(18.9207 -499.642 2300)
(499.199 28.2875 300)
(-243.847 436.507 300)
(499.541 21.4134 2300)
(-238.302 439.559 2300)
(28.2875 -499.199 300)
(26.0105 -499.323 2300)
(-244.517 436.132 2300)
(498.749 35.3488 300)
(-250 433.013 300)
(499.185 28.5444 2300)
(35.3488 -498.749 300)
(33.095 -498.904 2300)
(498.199 42.403 300)
(-250.683 432.618 2300)
(498.726 35.6696 2300)
(-256.102 429.432 300)
(42.403 -498.199 300)
(497.549 49.4487 300)
(40.1728 -498.384 2300)
(-256.798 429.016 2300)
(498.166 42.7875 2300)
(-262.154 425.765 300)
(49.4487 -497.549 300)
(496.799 56.4844 300)
(-262.861 425.328 2300)
(47.2426 -497.763 2300)
(497.504 49.8967 2300)
(-268.152 422.012 300)
(56.4844 -496.799 300)
(495.95 63.5089 300)
(-268.871 421.554 2300)
(496.741 56.9957 2300)
(-274.097 418.175 300)
(54.3028 -497.042 2300)
(63.5089 -495.95 300)
(495.002 70.5207 300)
(-274.828 417.696 2300)
(495.876 64.0831 2300)
(-279.987 414.255 300)
(61.3521 -496.222 2300)
(70.5207 -495.002 300)
(493.954 77.5183 300)
(-280.729 413.753 2300)
(-285.821 410.251 300)
(494.911 71.1574 2300)
(68.389 -495.301 2300)
(493.844 78.2172 2300)
(-286.573 409.727 2300)
(77.5183 -493.954 300)
(492.808 84.5004 300)
(-291.598 406.166 300)
(75.4121 -494.28 2300)
(-292.359 405.618 2300)
(492.677 85.2611 2300)
(-297.317 401.999 300)
(84.5004 -492.808 300)
(491.563 91.4656 300)
(82.4201 -493.16 2300)
(-298.087 401.428 2300)
(491.409 92.2876 2300)
(-302.975 397.751 300)
(490.219 98.4125 300)
(91.4656 -491.563 300)
(89.4115 -491.941 2300)
(488.778 105.34 300)
(-303.755 397.156 2300)
(-308.574 393.424 300)
(490.041 99.2952 2300)
(98.4125 -490.219 300)
(96.3848 -490.622 2300)
(-309.361 392.805 2300)
(487.238 112.246 300)
(-314.11 389.018 300)
(488.573 106.283 2300)
(105.34 -488.778 300)
(103.339 -489.205 2300)
(485.601 119.129 300)
(-314.905 388.374 2300)
(-319.583 384.534 300)
(487.006 113.248 2300)
(112.246 -487.238 300)
(483.866 125.989 300)
(-320.386 383.866 2300)
(110.272 -487.689 2300)
(-324.993 379.973 300)
(485.339 120.191 2300)
(117.183 -486.074 2300)
(119.129 -485.601 300)
(482.035 132.824 300)
(-325.802 379.28 2300)
(-330.337 375.336 300)
(483.573 127.109 2300)
(124.07 -484.362 2300)
(125.989 -483.866 300)
(480.107 139.631 300)
(-335.616 370.624 300)
(-331.152 374.617 2300)
(481.709 134.001 2300)
(130.932 -482.552 2300)
(132.824 -482.035 300)
(-340.827 365.838 300)
(-336.436 369.879 2300)
(478.083 146.411 300)
(137.768 -480.645 2300)
(139.631 -480.107 300)
(479.746 140.866 2300)
(-345.969 360.978 300)
(-341.652 365.067 2300)
(475.964 153.162 300)
(144.576 -478.642 2300)
(146.411 -478.083 300)
(477.686 147.702 2300)
(-351.043 356.046 300)
(-346.799 360.181 2300)
(151.355 -476.541 2300)
(473.749 159.882 300)
(153.162 -475.964 300)
(-356.046 351.043 300)
(475.528 154.508 2300)
(-351.877 355.222 2300)
(158.104 -474.345 2300)
(471.439 166.57 300)
(159.882 -473.749 300)
(-360.978 345.969 300)
(473.273 161.283 2300)
(-356.883 350.192 2300)
(164.821 -472.053 2300)
(166.57 -471.439 300)
(469.034 173.224 300)
(-365.838 340.827 300)
(-361.818 345.091 2300)
(470.922 168.025 2300)
(171.504 -469.666 2300)
(173.224 -469.034 300)
(466.536 179.844 300)
(468.475 174.732 2300)
(-370.624 335.616 300)
(178.153 -467.185 2300)
(-366.679 339.921 2300)
(179.844 -466.536 300)
(463.945 186.428 300)
(465.932 181.404 2300)
(-375.336 330.337 300)
(184.766 -464.609 2300)
(-371.467 334.682 2300)
(186.428 -463.945 300)
(461.26 192.975 300)
(463.294 188.039 2300)
(191.342 -461.94 2300)
(-379.973 324.993 300)
(192.975 -461.26 300)
(-376.18 329.376 2300)
(458.483 199.483 300)
(460.562 194.635 2300)
(197.879 -459.177 2300)
(-380.817 324.004 2300)
(-384.534 319.583 300)
(199.483 -458.483 300)
(455.614 205.951 300)
(204.376 -456.323 2300)
(457.736 201.192 2300)
(-385.377 318.566 2300)
(205.951 -455.614 300)
(-389.018 314.11 300)
(452.654 212.377 300)
(210.833 -453.376 2300)
(454.816 207.708 2300)
(212.377 -452.654 300)
(-389.86 313.064 2300)
(-393.424 308.574 300)
(449.604 218.762 300)
(217.246 -450.338 2300)
(218.762 -449.604 300)
(451.804 214.181 2300)
(-394.264 307.499 2300)
(-397.751 302.975 300)
(225.102 -446.463 300)
(446.463 225.102 300)
(223.616 -447.209 2300)
(448.699 220.611 2300)
(-398.589 301.872 2300)
(-401.999 297.317 300)
(231.397 -443.233 300)
(443.233 231.397 300)
(229.941 -443.99 2300)
(445.503 226.995 2300)
(-402.833 296.185 2300)
(-406.166 291.598 300)
(237.646 -439.914 300)
(236.22 -440.682 2300)
(439.914 237.646 300)
(442.216 233.334 2300)
(-406.997 290.437 2300)
(-410.251 285.821 300)
(243.847 -436.507 300)
(242.451 -437.284 2300)
(438.84 239.624 2300)
(436.507 243.847 300)
(-411.078 284.631 2300)
(250 -433.013 300)
(-414.255 279.987 300)
(248.633 -433.799 2300)
(435.373 245.866 2300)
(433.013 250 300)
(256.102 -429.432 300)
(-415.077 278.768 2300)
(-418.175 274.097 300)
(254.765 -430.226 2300)
(431.818 252.058 2300)
(429.432 256.102 300)
(262.154 -425.765 300)
(-418.991 272.848 2300)
(-422.012 268.152 300)
(260.846 -426.567 2300)
(428.175 258.199 2300)
(425.765 262.154 300)
(268.152 -422.012 300)
(-422.822 266.874 2300)
(266.874 -422.822 2300)
(-425.765 262.154 300)
(424.444 264.287 2300)
(422.012 268.152 300)
(274.097 -418.175 300)
(-426.567 260.846 2300)
(272.848 -418.991 2300)
(-429.432 256.102 300)
(278.768 -415.077 2300)
(420.627 270.32 2300)
(418.175 274.097 300)
(279.987 -414.255 300)
(-430.226 254.765 2300)
(-433.013 250 300)
(284.631 -411.078 2300)
(416.724 276.299 2300)
(414.255 279.987 300)
(285.821 -410.251 300)
(-433.799 248.633 2300)
(-436.507 243.847 300)
(290.437 -406.997 2300)
(412.736 282.222 2300)
(291.598 -406.166 300)
(410.251 285.821 300)
(-437.284 242.451 2300)
(-439.914 237.646 300)
(296.185 -402.833 2300)
(297.317 -401.999 300)
(408.664 288.086 2300)
(406.166 291.598 300)
(-440.682 236.22 2300)
(-443.233 231.397 300)
(301.872 -398.589 2300)
(302.975 -397.751 300)
(404.508 293.893 2300)
(401.999 297.317 300)
(-443.99 229.941 2300)
(-446.463 225.102 300)
(307.499 -394.264 2300)
(308.574 -393.424 300)
(400.271 299.639 2300)
(397.751 302.975 300)
(-447.209 223.616 2300)
(313.064 -389.86 2300)
(-449.604 218.762 300)
(314.11 -389.018 300)
(395.951 305.324 2300)
(393.424 308.574 300)
(-450.338 217.246 2300)
(318.566 -385.377 2300)
(-452.654 212.377 300)
(319.583 -384.534 300)
(389.018 314.11 300)
(391.551 310.947 2300)
(324.004 -380.817 2300)
(-453.376 210.833 2300)
(-455.614 205.951 300)
(324.993 -379.973 300)
(384.534 319.583 300)
(387.071 316.506 2300)
(329.376 -376.18 2300)
(-456.323 204.376 2300)
(330.337 -375.336 300)
(-458.483 199.483 300)
(379.973 324.993 300)
(334.682 -371.467 2300)
(382.512 322.001 2300)
(-459.177 197.879 2300)
(335.616 -370.624 300)
(-461.26 192.975 300)
(375.336 330.337 300)
(339.921 -366.679 2300)
(340.827 -365.838 300)
(377.875 327.43 2300)
(-461.94 191.342 2300)
(-463.945 186.428 300)
(370.624 335.616 300)
(345.091 -361.818 2300)
(345.969 -360.978 300)
(373.161 332.793 2300)
(-466.536 179.844 300)
(-464.609 184.766 2300)
(350.192 -356.883 2300)
(365.838 340.827 300)
(351.043 -356.046 300)
(368.371 338.087 2300)
(-469.034 173.224 300)
(-467.185 178.153 2300)
(355.222 -351.877 2300)
(360.978 345.969 300)
(356.046 -351.043 300)
(363.505 343.313 2300)
(-469.666 171.504 2300)
(-471.439 166.57 300)
(360.181 -346.799 2300)
(356.046 351.043 300)
(360.978 -345.969 300)
(358.566 348.469 2300)
(-472.053 164.821 2300)
(-473.749 159.882 300)
(365.067 -341.652 2300)
(365.838 -340.827 300)
(351.043 356.046 300)
(353.553 353.553 2300)
(369.879 -336.436 2300)
(-474.345 158.104 2300)
(-475.964 153.162 300)
(370.624 -335.616 300)
(345.969 360.978 300)
(348.469 358.566 2300)
(-478.083 146.411 300)
(374.617 -331.152 2300)
(-476.541 151.355 2300)
(375.336 -330.337 300)
(340.827 365.838 300)
(343.313 363.505 2300)
(-480.107 139.631 300)
(379.28 -325.802 2300)
(-478.642 144.576 2300)
(379.973 -324.993 300)
(335.616 370.624 300)
(338.087 368.371 2300)
(-482.035 132.824 300)
(383.866 -320.386 2300)
(384.534 -319.583 300)
(-480.645 137.768 2300)
(330.337 375.336 300)
(332.793 373.161 2300)
(388.374 -314.905 2300)
(-483.866 125.989 300)
(389.018 -314.11 300)
(-482.552 130.932 2300)
(324.993 379.973 300)
(392.805 -309.361 2300)
(-485.601 119.129 300)
(393.424 -308.574 300)
(327.43 377.875 2300)
(-484.362 124.07 2300)
(319.583 384.534 300)
(397.751 -302.975 300)
(397.156 -303.755 2300)
(322.001 382.512 2300)
(-487.238 112.246 300)
(-486.074 117.183 2300)
(401.999 -297.317 300)
(401.428 -298.087 2300)
(316.506 387.071 2300)
(314.11 389.018 300)
(-488.778 105.34 300)
(-487.689 110.272 2300)
(405.618 -292.359 2300)
(406.166 -291.598 300)
(310.947 391.551 2300)
(308.574 393.424 300)
(-490.219 98.4125 300)
(-489.205 103.339 2300)
(409.727 -286.573 2300)
(410.251 -285.821 300)
(305.324 395.951 2300)
(302.975 397.751 300)
(-491.563 91.4656 300)
(-490.622 96.3848 2300)
(413.753 -280.729 2300)
(414.255 -279.987 300)
(299.639 400.271 2300)
(297.317 401.999 300)
(-492.808 84.5004 300)
(418.175 -274.097 300)
(-491.941 89.4115 2300)
(417.696 -274.828 2300)
(293.893 404.508 2300)
(291.598 406.166 300)
(-493.954 77.5183 300)
(422.012 -268.152 300)
(-493.16 82.4201 2300)
(421.554 -268.871 2300)
(288.086 408.664 2300)
(285.821 410.251 300)
(425.765 -262.154 300)
(-495.002 70.5207 300)
(425.328 -262.861 2300)
(-494.28 75.4121 2300)
(282.222 412.736 2300)
(429.432 -256.102 300)
(279.987 414.255 300)
(-495.95 63.5089 300)
(429.016 -256.798 2300)
(-495.301 68.389 2300)
(433.013 -250 300)
(276.299 416.724 2300)
(274.097 418.175 300)
(-496.799 56.4844 300)
(432.618 -250.683 2300)
(-496.222 61.3521 2300)
(436.507 -243.847 300)
(270.32 420.627 2300)
(268.152 422.012 300)
(436.132 -244.517 2300)
(-497.549 49.4487 300)
(-497.042 54.3028 2300)
(439.914 -237.646 300)
(264.287 424.444 2300)
(439.559 -238.302 2300)
(262.154 425.765 300)
(-498.199 42.403 300)
(-497.763 47.2426 2300)
(443.233 -231.397 300)
(442.897 -232.039 2300)
(258.199 428.175 2300)
(256.102 429.432 300)
(-498.749 35.3488 300)
(-498.384 40.1728 2300)
(446.463 -225.102 300)
(446.146 -225.73 2300)
(252.058 431.818 2300)
(250 433.013 300)
(-499.199 28.2875 300)
(-498.904 33.095 2300)
(449.604 -218.762 300)
(449.305 -219.375 2300)
(245.866 435.373 2300)
(243.847 436.507 300)
(-499.549 21.2206 300)
(452.654 -212.377 300)
(-499.323 26.0105 2300)
(452.373 -212.975 2300)
(239.624 438.84 2300)
(237.646 439.914 300)
(-499.8 14.1494 300)
(455.614 -205.951 300)
(-499.642 18.9207 2300)
(455.351 -206.533 2300)
(233.334 442.216 2300)
(-499.95 7.07542 300)
(231.397 443.233 300)
(458.483 -199.483 300)
(-499.86 11.8272 2300)
(458.236 -200.049 2300)
(226.995 445.503 2300)
(-500 -1.93717e-12 300)
(225.102 446.463 300)
(461.26 -192.975 300)
(-499.978 4.73124 2300)
(461.029 -193.525 2300)
(-499.994 -2.36565 2300)
(220.611 448.699 2300)
(463.945 -186.428 300)
(-499.95 -7.07542 300)
(218.762 449.604 300)
(463.73 -186.962 2300)
(-499.91 -9.46206 2300)
(214.181 451.804 2300)
(466.536 -179.844 300)
(-499.8 -14.1494 300)
(212.377 452.654 300)
(466.337 -180.361 2300)
(469.034 -173.224 300)
(-499.726 -16.5566 2300)
(207.708 454.816 2300)
(-499.549 -21.2206 300)
(205.951 455.614 300)
(468.85 -173.724 2300)
(-499.44 -23.6477 2300)
(471.439 -166.57 300)
(201.192 457.736 2300)
(-499.199 -28.2875 300)
(199.483 458.483 300)
(471.268 -167.052 2300)
(473.749 -159.882 300)
(-499.055 -30.7342 2300)
(-498.749 -35.3488 300)
(192.975 461.26 300)
(194.635 460.562 2300)
(473.592 -160.346 2300)
(-498.568 -37.8144 2300)
(475.964 -153.162 300)
(-498.199 -42.403 300)
(186.428 463.945 300)
(475.82 -153.608 2300)
(188.039 463.294 2300)
(478.083 -146.411 300)
(-497.981 -44.887 2300)
(-497.549 -49.4487 300)
(179.844 466.536 300)
(477.952 -146.839 2300)
(181.404 465.932 2300)
(-496.799 -56.4844 300)
(-497.294 -51.9505 2300)
(480.107 -139.631 300)
(479.988 -140.041 2300)
(173.224 469.034 300)
(-495.95 -63.5089 300)
(174.732 468.475 2300)
(-496.506 -59.0036 2300)
(481.927 -133.214 2300)
(482.035 -132.824 300)
(168.025 470.922 2300)
(166.57 471.439 300)
(-495.002 -70.5207 300)
(483.77 -126.36 2300)
(-495.619 -66.0448 2300)
(483.866 -125.989 300)
(161.283 473.273 2300)
(-493.954 -77.5183 300)
(159.882 473.749 300)
(485.514 -119.481 2300)
(-494.632 -73.0727 2300)
(485.601 -119.129 300)
(-492.808 -84.5004 300)
(154.508 475.528 2300)
(487.161 -112.578 2300)
(153.162 475.964 300)
(-493.545 -80.0859 2300)
(487.238 -112.246 300)
(-491.563 -91.4656 300)
(147.702 477.686 2300)
(488.71 -105.652 2300)
(-492.358 -87.0829 2300)
(146.411 478.083 300)
(488.778 -105.34 300)
(-490.219 -98.4125 300)
(490.161 -98.705 2300)
(-491.073 -94.0624 2300)
(140.866 479.746 2300)
(139.631 480.107 300)
(490.219 -98.4125 300)
(-488.778 -105.34 300)
(491.512 -91.738 2300)
(-489.688 -101.023 2300)
(491.563 -91.4656 300)
(134.001 481.709 2300)
(132.824 482.035 300)
(-487.238 -112.246 300)
(492.765 -84.7525 2300)
(-488.205 -107.963 2300)
(492.808 -84.5004 300)
(127.109 483.573 2300)
(125.989 483.866 300)
(-485.601 -119.129 300)
(493.954 -77.5183 300)
(493.918 -77.7499 2300)
(-486.623 -114.882 2300)
(120.191 485.339 2300)
(119.129 485.601 300)
(-483.866 -125.989 300)
(495.002 -70.5207 300)
(-484.944 -121.777 2300)
(494.972 -70.7317 2300)
(113.248 487.006 2300)
(112.246 487.238 300)
(-482.035 -132.824 300)
(495.95 -63.5089 300)
(-483.166 -128.648 2300)
(495.926 -63.6992 2300)
(106.283 488.573 2300)
(105.34 488.778 300)
(-480.107 -139.631 300)
(496.799 -56.4844 300)
(-481.292 -135.493 2300)
(496.78 -56.6538 2300)
(99.2952 490.041 2300)
(-478.083 -146.411 300)
(98.4125 490.219 300)
(497.549 -49.4487 300)
(-479.32 -142.31 2300)
(497.534 -49.5971 2300)
(-475.964 -153.162 300)
(92.2876 491.409 2300)
(498.199 -42.403 300)
(91.4656 491.563 300)
(-477.252 -149.099 2300)
(498.188 -42.5304 2300)
(-473.749 -159.882 300)
(498.749 -35.3488 300)
(-475.088 -155.858 2300)
(85.2611 492.677 2300)
(84.5004 492.808 300)
(498.741 -35.4551 2300)
(-471.439 -166.57 300)
(77.5183 493.954 300)
(499.199 -28.2875 300)
(-472.828 -162.585 2300)
(78.2172 493.844 2300)
(499.194 -28.3726 2300)
(-469.034 -173.224 300)
(70.5207 495.002 300)
(499.549 -21.2206 300)
(-470.472 -169.28 2300)
(71.1574 494.911 2300)
(499.547 -21.2845 2300)
(499.8 -14.1494 300)
(-466.536 -179.844 300)
(63.5089 495.95 300)
(-468.022 -175.941 2300)
(64.0831 495.876 2300)
(499.799 -14.192 2300)
(499.95 -7.07542 300)
(-465.478 -182.566 2300)
(499.95 -7.09673 2300)
(-463.945 -186.428 300)
(56.4844 496.799 300)
(56.9957 496.741 2300)
(7.13974 499.949 2300)
(3.1128 499.99 2299.9)
(-7.09673 499.95 2300)
(-4.37804 499.981 2299.81)
(-462.84 -189.154 2300)
(43.064 498.142 2275.41)
(40.8771 498.326 2278.79)
(29.4591 499.131 2290.4)
(26.002 499.323 2292.71)
(-461.26 -192.975 300)
(22.3356 499.501 2294.73)
(18.4788 499.658 2296.46)
(49.4487 497.549 300)
(14.4544 499.791 2297.87)
(10.2975 499.894 2298.93)
(6.06872 499.963 2299.63)
(-8.36979 499.93 2299.29)
(-12.4536 499.845 2298.42)
(-16.4566 499.729 2297.21)
(-20.3727 499.585 2295.66)
(-24.1763 499.415 2293.77)
(-27.8379 499.224 2291.53)
(-31.3234 499.018 2288.97)
(-34.5996 498.801 2286.1)
(-37.6339 498.582 2282.92)
(-40.3946 498.366 2279.47)
(-42.8526 498.16 2275.76)
(-460.109 -195.704 2300)
(49.8016 497.514 2245.55)
(50 497.494 2250)
(-48.9066 497.602 2260.4)
(-49.5863 497.535 2256.42)
(-458.483 -199.483 300)
(-457.284 -202.215 2300)
(49.8967 497.504 2300)
(-455.614 -205.951 300)
(49.8016 497.514 2254.45)
(49.2135 497.572 2241.17)
(-454.368 -208.685 2300)
(-452.654 -212.377 300)
(49.2135 497.572 2258.83)
(-451.361 -215.113 2300)
(48.2382 497.668 2236.84)
(-449.604 -218.762 300)
(48.2382 497.668 2263.16)
(-448.262 -221.498 2300)
(-446.463 -225.102 300)
(46.8835 497.797 2232.62)
(-445.073 -227.838 2300)
(-443.233 -231.397 300)
(46.8835 497.797 2267.38)
(42.403 498.199 300)
(-441.794 -234.132 2300)
(-439.914 -237.646 300)
(45.1563 497.957 2228.53)
(-438.427 -240.379 2300)
(45.1563 497.957 2271.47)
(-436.507 -243.847 300)
(43.064 498.142 2224.59)
(-434.971 -246.578 2300)
(-433.013 -250 300)
(42.7875 498.166 2300)
(-431.427 -252.727 2300)
(-429.432 -256.102 300)
(40.8771 498.326 2221.21)
(-427.796 -258.825 2300)
(-425.765 -262.154 300)
(38.4117 498.522 2217.99)
(35.3488 498.749 300)
(-424.08 -264.87 2300)
(-422.012 -268.152 300)
(38.4117 498.522 2282.01)
(-420.278 -270.863 2300)
(-418.175 -274.097 300)
(35.6785 498.725 2214.97)
(-414.255 -279.987 300)
(-416.391 -276.801 2300)
(35.6696 498.726 2300)
(35.6785 498.725 2285.03)
(-412.42 -282.683 2300)
(-410.251 -285.821 300)
(28.2875 499.199 300)
(32.6897 498.93 2212.17)
(-406.166 -291.598 300)
(-408.366 -288.508 2300)
(32.6897 498.93 2287.83)
(-401.999 -297.317 300)
(29.4591 499.131 2209.6)
(-404.23 -294.275 2300)
(-397.751 -302.975 300)
(-400.013 -299.983 2300)
(28.5444 499.185 2300)
(-393.424 -308.574 300)
(26.002 499.323 2207.29)
(21.2206 499.549 300)
(-395.715 -305.63 2300)
(-389.018 -314.11 300)
(-391.337 -311.216 2300)
(22.3356 499.501 2205.27)
(-384.534 -319.583 300)
(-386.88 -316.739 2300)
(21.4134 499.541 2300)
(-379.973 -324.993 300)
(-382.346 -322.199 2300)
(14.1494 499.8 300)
(18.4788 499.658 2203.54)
(-375.336 -330.337 300)
(-377.734 -327.593 2300)
(-373.046 -332.921 2300)
(14.4544 499.791 2202.13)
(-370.624 -335.616 300)
(-368.283 -338.182 2300)
(14.278 499.796 2300)
(-365.838 -340.827 300)
(7.07542 499.95 300)
(-363.446 -343.376 2300)
(-360.978 -345.969 300)
(10.2975 499.894 2201.07)
(-358.536 -348.5 2300)
(-356.046 -351.043 300)
(6.06872 499.963 2200.37)
(-353.553 -353.553 2300)
(-351.043 -356.046 300)
(-348.5 -358.536 2300)
(-345.969 -360.978 300)
(1.8767 499.996 2200.04)
(-343.376 -363.446 2300)
(-1.91428e-13 500 300)
(-340.827 -365.838 300)
(-338.182 -368.283 2300)
(-335.616 -370.624 300)
(-7.07542 499.95 300)
(-2.16213 499.995 2200.05)
(-332.921 -373.046 2300)
(-330.337 -375.336 300)
(-327.593 -377.734 2300)
(-6.43483 499.959 2200.42)
(-324.993 -379.973 300)
(-322.199 -382.346 2300)
(-319.583 -384.534 300)
(-14.1494 499.8 300)
(-316.739 -386.88 2300)
(-10.562 499.888 2201.13)
(-314.11 -389.018 300)
(-311.216 -391.337 2300)
(-308.574 -393.424 300)
(-14.6018 499.787 2202.18)
(-305.63 -395.715 2300)
(-14.192 499.799 2300)
(-302.975 -397.751 300)
(-299.983 -400.013 2300)
(-297.317 -401.999 300)
(-21.2206 499.549 300)
(-18.5601 499.655 2203.57)
(-294.275 -404.23 2300)
(-291.598 -406.166 300)
(-21.2845 499.547 2300)
(-288.508 -408.366 2300)
(-285.821 -410.251 300)
(-22.42 499.497 2205.31)
(-282.683 -412.42 2300)
(-279.987 -414.255 300)
(-26.1521 499.316 2207.38)
(-276.801 -416.391 2300)
(-28.2875 499.199 300)
(-274.097 -418.175 300)
(-270.863 -420.278 2300)
(-268.152 -422.012 300)
(-28.3726 499.194 2300)
(-264.87 -424.08 2300)
(-262.154 -425.765 300)
(-29.7235 499.116 2209.79)
(-258.825 -427.796 2300)
(-256.102 -429.432 300)
(-35.3488 498.749 300)
(-33.1015 498.903 2212.53)
(-252.727 -431.427 2300)
(-250 -433.013 300)
(-36.2523 498.684 2215.56)
(-243.847 -436.507 300)
(-246.578 -434.971 2300)
(-35.4551 498.741 2300)
(-237.646 -439.914 300)
(-240.379 -438.427 2300)
(-234.132 -441.794 2300)
(-42.403 498.199 300)
(-231.397 -443.233 300)
(-39.1443 498.465 2218.89)
(-227.838 -445.073 2300)
(-225.102 -446.463 300)
(-41.7469 498.254 2222.48)
(-221.498 -448.262 2300)
(-42.5304 498.188 2300)
(-218.762 -449.604 300)
(-212.377 -452.654 300)
(-44.0319 498.057 2226.31)
(-215.113 -451.361 2300)
(-205.951 -455.614 300)
(-208.685 -454.368 2300)
(-44.981 497.973 2271.83)
(-49.4487 497.549 300)
(-199.483 -458.483 300)
(-45.7959 497.898 2229.93)
(-202.215 -457.284 2300)
(-192.975 -461.26 300)
(-47.2657 497.761 2233.69)
(-195.704 -460.109 2300)
(-186.428 -463.945 300)
(-189.154 -462.84 2300)
(-48.4285 497.649 2237.56)
(-179.844 -466.536 300)
(-182.566 -465.478 2300)
(-49.2747 497.566 2241.51)
(-173.224 -469.034 300)
(-175.941 -468.022 2300)
(-49.7984 497.514 2245.51)
(-56.4844 496.799 300)
(-166.57 -471.439 300)
(-49.9495 497.499 2247.75)
(-169.28 -470.472 2300)
(-159.882 -473.749 300)
(-162.585 -472.828 2300)
(-46.5944 497.824 2268.14)
(-47.9067 497.7 2264.32)
(-49.8961 497.504 2253.22)
(-50 497.494 2250)
(-49.5971 497.534 2300)
(-153.162 -475.964 300)
(-155.858 -475.088 2300)
(-63.5089 495.95 300)
(-146.411 -478.083 300)
(-149.099 -477.252 2300)
(-56.6538 496.78 2300)
(-70.5207 495.002 300)
(-139.631 -480.107 300)
(-63.6992 495.926 2300)
(-142.31 -479.32 2300)
(-77.5183 493.954 300)
(-132.824 -482.035 300)
(-70.7317 494.972 2300)
(-135.493 -481.292 2300)
(-77.7499 493.918 2300)
(-84.5004 492.808 300)
(-125.989 -483.866 300)
(-128.648 -483.166 2300)
(-84.7525 492.765 2300)
(-91.4656 491.563 300)
(-119.129 -485.601 300)
(-121.777 -484.944 2300)
(-91.738 491.512 2300)
(-98.4125 490.219 300)
(-112.246 -487.238 300)
(-114.882 -486.623 2300)
(-98.705 490.161 2300)
(-105.34 488.778 300)
(-105.34 -488.778 300)
(-107.963 -488.205 2300)
(-105.652 488.71 2300)
(-112.246 487.238 300)
(-98.4125 -490.219 300)
(-101.023 -489.688 2300)
(-112.578 487.161 2300)
(-119.129 485.601 300)
(-91.4656 -491.563 300)
(-125.989 483.866 300)
(-94.0624 -491.073 2300)
(-119.481 485.514 2300)
(-84.5004 -492.808 300)
(-132.824 482.035 300)
(-87.0829 -492.358 2300)
(-126.36 483.77 2300)
(-77.5183 -493.954 300)
(-139.631 480.107 300)
(-133.214 481.927 2300)
(-80.0859 -493.545 2300)
(-146.411 478.083 300)
(-70.5207 -495.002 300)
(-140.041 479.988 2300)
(-73.0727 -494.632 2300)
(-153.162 475.964 300)
(-66.0448 -495.619 2300)
(-146.839 477.952 2300)
(-63.5089 -495.95 300)
(-159.882 473.749 300)
(-153.608 475.82 2300)
(-59.0036 -496.506 2300)
(-56.4844 -496.799 300)
(-166.57 471.439 300)
(-160.346 473.592 2300)
(-51.9505 -497.294 2300)
(-49.4487 -497.549 300)
(-173.224 469.034 300)
(-167.052 471.268 2300)
(-44.887 -497.981 2300)
(-42.403 -498.199 300)
(-179.844 466.536 300)
(-173.724 468.85 2300)
(-37.8144 -498.568 2300)
(-35.3488 -498.749 300)
(-186.428 463.945 300)
(-180.361 466.337 2300)
(-30.7342 -499.055 2300)
(-192.975 461.26 300)
(-28.2875 -499.199 300)
(-186.962 463.73 2300)
(-23.6477 -499.44 2300)
(-199.483 458.483 300)
(-21.2206 -499.549 300)
(-193.525 461.029 2300)
(-16.5566 -499.726 2300)
(-205.951 455.614 300)
(-14.1494 -499.8 300)
(-200.049 458.236 2300)
)

// edges

962
(
(1 2)
(3 4)
(5 6)
(7 8)
(2 9)
(10 11)
(12 5)
(4 13)
(14 7)
(9 15)
(11 16)
(17 12)
(18 19)
(13 20)
(21 14)
(15 22)
(16 23)
(24 17)
(25 18)
(20 26)
(27 21)
(23 28)
(22 29)
(30 25)
(31 24)
(26 32)
(33 27)
(34 31)
(28 35)
(29 36)
(37 30)
(32 38)
(39 33)
(35 40)
(41 34)
(42 37)
(36 43)
(38 44)
(40 45)
(46 39)
(47 41)
(48 42)
(43 49)
(44 50)
(45 51)
(52 47)
(53 46)
(54 48)
(49 55)
(50 56)
(51 57)
(58 52)
(59 54)
(55 60)
(61 53)
(56 62)
(57 63)
(64 58)
(65 59)
(60 66)
(67 61)
(62 68)
(63 69)
(70 64)
(66 71)
(72 65)
(73 67)
(74 72)
(75 70)
(68 76)
(69 77)
(71 78)
(79 73)
(80 75)
(81 74)
(78 82)
(76 83)
(77 84)
(85 79)
(86 80)
(87 81)
(82 88)
(84 89)
(83 90)
(91 85)
(89 92)
(93 86)
(88 94)
(95 87)
(90 96)
(97 91)
(98 93)
(92 99)
(94 100)
(101 95)
(96 102)
(103 97)
(99 104)
(105 98)
(100 106)
(107 101)
(102 108)
(104 109)
(110 105)
(111 103)
(106 112)
(113 107)
(114 111)
(108 115)
(109 116)
(117 110)
(112 118)
(119 113)
(120 114)
(115 121)
(116 122)
(118 123)
(124 117)
(125 119)
(126 120)
(121 127)
(123 128)
(129 124)
(122 130)
(131 126)
(127 132)
(133 125)
(128 134)
(135 129)
(130 136)
(137 131)
(132 138)
(139 133)
(134 140)
(141 135)
(142 137)
(136 143)
(138 144)
(140 145)
(146 139)
(147 141)
(148 142)
(143 149)
(144 150)
(145 151)
(152 146)
(153 147)
(154 148)
(150 155)
(149 156)
(151 157)
(158 153)
(159 152)
(160 154)
(155 161)
(156 162)
(163 159)
(157 164)
(165 160)
(166 158)
(161 167)
(162 168)
(169 163)
(164 170)
(171 165)
(172 166)
(167 173)
(168 174)
(175 169)
(176 171)
(170 177)
(173 178)
(179 172)
(174 180)
(181 175)
(182 176)
(183 179)
(177 184)
(178 185)
(180 186)
(187 182)
(188 181)
(189 183)
(185 190)
(184 191)
(186 192)
(193 187)
(194 188)
(190 195)
(196 189)
(191 197)
(192 198)
(199 193)
(195 200)
(201 194)
(202 196)
(197 203)
(200 204)
(198 205)
(206 199)
(207 201)
(208 202)
(203 209)
(204 210)
(205 211)
(212 206)
(213 207)
(214 208)
(209 215)
(210 216)
(217 212)
(211 218)
(219 213)
(220 214)
(215 221)
(216 222)
(223 217)
(224 219)
(218 225)
(226 220)
(222 227)
(221 228)
(229 223)
(230 224)
(225 231)
(227 232)
(233 226)
(228 234)
(235 229)
(236 230)
(231 237)
(232 238)
(239 233)
(234 240)
(241 235)
(242 236)
(237 243)
(238 244)
(245 239)
(246 241)
(240 247)
(248 242)
(243 249)
(244 250)
(251 245)
(252 246)
(247 253)
(254 252)
(255 248)
(249 256)
(250 257)
(258 251)
(253 259)
(260 254)
(261 255)
(256 262)
(257 263)
(264 258)
(259 265)
(266 260)
(267 261)
(263 268)
(262 269)
(270 264)
(265 271)
(272 266)
(268 273)
(274 267)
(269 275)
(276 270)
(271 277)
(278 272)
(273 279)
(280 274)
(275 281)
(282 276)
(277 283)
(284 278)
(279 285)
(286 280)
(281 287)
(288 282)
(289 284)
(283 290)
(285 291)
(292 286)
(287 293)
(294 288)
(295 289)
(290 296)
(291 297)
(293 298)
(299 292)
(300 295)
(301 294)
(296 302)
(297 303)
(298 304)
(305 299)
(306 300)
(307 301)
(303 308)
(302 309)
(304 310)
(311 306)
(312 305)
(313 307)
(308 314)
(309 315)
(310 316)
(317 311)
(314 318)
(319 312)
(320 313)
(315 321)
(316 322)
(323 317)
(318 324)
(325 319)
(321 326)
(327 320)
(328 323)
(322 329)
(324 330)
(331 325)
(326 332)
(333 327)
(334 328)
(329 335)
(330 336)
(337 331)
(338 333)
(332 339)
(340 334)
(335 341)
(336 342)
(343 337)
(344 338)
(339 345)
(346 340)
(342 347)
(341 348)
(349 343)
(350 346)
(351 344)
(345 352)
(347 353)
(348 354)
(355 349)
(352 356)
(357 350)
(358 351)
(353 359)
(354 360)
(361 355)
(356 362)
(363 357)
(364 358)
(359 365)
(360 366)
(367 361)
(362 368)
(369 363)
(365 370)
(371 364)
(366 372)
(373 367)
(374 369)
(368 375)
(370 376)
(377 371)
(372 378)
(379 374)
(375 380)
(376 381)
(382 373)
(383 377)
(378 384)
(381 385)
(386 379)
(387 382)
(380 388)
(389 383)
(385 390)
(391 386)
(392 387)
(384 393)
(388 394)
(395 389)
(396 391)
(390 397)
(398 392)
(393 399)
(394 400)
(401 395)
(402 396)
(397 403)
(404 398)
(399 405)
(400 406)
(407 401)
(408 402)
(403 409)
(410 404)
(405 411)
(406 412)
(409 413)
(414 407)
(415 408)
(416 410)
(411 417)
(412 418)
(413 419)
(420 414)
(421 415)
(422 416)
(417 423)
(419 424)
(418 425)
(426 421)
(427 420)
(428 422)
(424 429)
(423 430)
(425 431)
(432 426)
(433 427)
(429 434)
(435 428)
(430 436)
(431 437)
(438 432)
(439 433)
(434 440)
(441 435)
(436 442)
(443 438)
(437 444)
(445 439)
(440 446)
(447 441)
(448 443)
(442 449)
(444 450)
(451 445)
(446 452)
(453 448)
(454 447)
(449 455)
(450 456)
(457 451)
(452 458)
(459 453)
(460 454)
(455 461)
(456 462)
(463 457)
(458 464)
(465 459)
(466 460)
(461 467)
(462 468)
(464 469)
(470 463)
(471 465)
(472 466)
(467 473)
(468 474)
(469 475)
(476 470)
(477 471)
(478 472)
(474 479)
(473 480)
(475 481)
(482 476)
(483 477)
(484 478)
(479 485)
(480 486)
(481 487)
(488 482)
(489 483)
(490 488)
(491 484)
(487 492)
(485 493)
(486 494)
(495 489)
(496 490)
(497 491)
(492 498)
(493 499)
(494 500)
(501 495)
(498 502)
(503 496)
(504 497)
(499 505)
(500 506)
(507 501)
(508 503)
(502 509)
(510 504)
(505 511)
(506 512)
(513 507)
(509 514)
(515 508)
(511 516)
(512 517)
(518 510)
(519 513)
(520 515)
(514 521)
(516 522)
(517 523)
(524 519)
(525 518)
(521 526)
(527 520)
(522 528)
(523 529)
(530 524)
(531 525)
(528 532)
(533 527)
(526 534)
(535 530)
(529 536)
(532 537)
(538 531)
(539 533)
(540 535)
(534 541)
(542 538)
(536 543)
(537 544)
(545 540)
(546 539)
(541 547)
(548 542)
(544 549)
(543 550)
(551 545)
(552 546)
(547 553)
(549 554)
(555 548)
(556 551)
(550 557)
(558 552)
(553 559)
(554 560)
(561 555)
(562 556)
(563 558)
(557 564)
(559 565)
(560 566)
(567 562)
(568 563)
(569 561)
(564 570)
(565 571)
(566 572)
(573 567)
(574 568)
(571 575)
(576 569)
(570 577)
(572 578)
(579 573)
(580 574)
(575 581)
(582 576)
(577 583)
(578 584)
(581 585)
(586 579)
(587 580)
(588 582)
(583 589)
(584 590)
(585 591)
(592 587)
(593 586)
(594 588)
(589 595)
(590 596)
(591 597)
(598 592)
(599 593)
(600 594)
(595 601)
(596 602)
(597 603)
(604 598)
(605 599)
(606 600)
(602 607)
(601 608)
(603 609)
(610 604)
(611 605)
(607 612)
(613 606)
(609 614)
(608 615)
(616 610)
(617 611)
(612 618)
(614 619)
(620 616)
(621 613)
(615 622)
(623 617)
(618 624)
(622 625)
(619 626)
(627 620)
(628 621)
(629 623)
(624 630)
(625 631)
(626 632)
(633 627)
(634 628)
(635 629)
(632 636)
(630 637)
(631 638)
(639 633)
(640 634)
(641 635)
(636 642)
(643 639)
(644 641)
(637 645)
(638 646)
(19 644)
(642 10)
(647 640)
(0 648)
(649 0)
(650 0)
(0 651)
(652 643)
(653 654)
(655 656)
(645 657)
(658 659)
(646 660)
(661 662)
(662 663)
(651 664)
(665 666)
(667 668)
(669 670)
(671 672)
(673 674)
(675 652)
(676 677)
(678 679)
(657 680)
(681 675)
(682 647)
(680 683)
(677 684)
(685 676)
(686 681)
(683 687)
(684 688)
(689 686)
(690 685)