/*--------------------------------*- C++ -*----------------------------------*\
| =========                 |                                                 |
| \\      /  F ield         | OpenFOAM: The Open Source CFD Toolbox           |
|  \\    /   O peration     | Version:  4.1                                   |
|   \\  /    A nd           | Web:      www.OpenFOAM.org                      |
|    \\/     M anipulation  |                                                 |
\*---------------------------------------------------------------------------*/
FoamFile
{
    version     2.0;
    format      ascii;
    class       polyBoundaryMesh;
    location    "3/polyMesh";
    object      boundary;
}
// * * * * * * * * * * * * * * * * * * * * * * * * * * * * * * * * * * * * * //

6
(
    defaultFaces
    {
        type            empty;
        inGroups        1(empty);
        nFaces          3630;
        startFace       65510;
    }
    Wand_Inlet
    {
        type            wall;
        inGroups        1(wall);
        nFaces          140;
        startFace       69140;
    }
    Wand_Outlet
    {
        type            wall;
        inGroups        1(wall);
        nFaces          78;
        startFace       69280;
    }
    Wand_TankOben
    {
        type            wall;
        inGroups        1(wall);
        nFaces          1446;
        startFace       69358;
    }
    Wand_TankUnten
    {
        type            wall;
        inGroups        1(wall);
        nFaces          1656;
        startFace       70804;
    }
    Wand_Tankwand
    {
        type            wall;
        inGroups        1(wall);
        nFaces          3684;
        startFace       72460;
    }
)

// ************************************************************************* //
