/*--------------------------------*- C++ -*----------------------------------*\
| =========                 |                                                 |
| \\      /  F ield         | OpenFOAM: The Open Source CFD Toolbox           |
|  \\    /   O peration     | Version:  4.1                                   |
|   \\  /    A nd           | Web:      www.OpenFOAM.org                      |
|    \\/     M anipulation  |                                                 |
\*---------------------------------------------------------------------------*/
FoamFile
{
    version     2.0;
    format      ascii;
    class       featureEdgeMesh;
    location    "constant/triSurface";
    object      wallOutlet.eMesh;
}
// * * * * * * * * * * * * * * * * * * * * * * * * * * * * * * * * * * * * * //


// points:

216
(
(50 497.494 2250)
(49.8016 497.514 2245.55)
(49.9497 750 2247.76)
(50 750 2250)
(49.7987 750 2245.52)
(49.5475 750 2243.29)
(49.2135 497.572 2241.17)
(49.1965 750 2241.07)
(48.7464 750 2238.87)
(48.2382 497.668 2236.84)
(48.1981 750 2236.7)
(47.5528 750 2234.55)
(46.8835 497.797 2232.62)
(46.8117 750 2232.43)
(45.1563 497.957 2228.53)
(45.9764 750 2230.35)
(45.0484 750 2228.31)
(43.064 498.142 2224.59)
(44.0298 750 2226.31)
(42.9224 750 2224.35)
(40.8771 498.326 2221.21)
(41.7287 750 2222.46)
(40.4509 750 2220.61)
(38.4117 498.522 2217.99)
(39.0916 750 2218.83)
(35.6785 498.725 2214.97)
(37.6536 750 2217.1)
(36.1397 750 2215.45)
(32.6897 498.93 2212.17)
(34.5531 750 2213.86)
(32.8969 750 2212.35)
(29.4591 499.131 2209.6)
(31.1745 750 2210.91)
(29.3893 750 2209.55)
(26.002 499.323 2207.29)
(27.5448 750 2208.27)
(25.645 750 2207.08)
(22.3356 499.501 2205.27)
(23.6934 750 2205.97)
(21.6942 750 2204.95)
(18.4788 499.658 2203.54)
(19.6513 750 2204.02)
(17.5687 750 2203.19)
(15.4508 750 2202.45)
(14.4544 499.791 2202.13)
(13.3018 750 2201.8)
(10.2975 499.894 2201.07)
(11.126 750 2201.25)
(8.92785 750 2200.8)
(6.06872 499.963 2200.37)
(6.71166 750 2200.45)
(4.48197 750 2200.2)
(1.8767 499.996 2200.04)
(2.24324 750 2200.05)
(3.06162e-15 750 2200)
(-2.16213 499.995 2200.05)
(-2.24324 750 2200.05)
(-4.48197 750 2200.2)
(-6.43483 499.959 2200.42)
(-6.71166 750 2200.45)
(-8.92785 750 2200.8)
(-10.562 499.888 2201.13)
(-11.126 750 2201.25)
(-13.3018 750 2201.8)
(-14.6018 499.787 2202.18)
(-15.4508 750 2202.45)
(-17.5687 750 2203.19)
(-18.5601 499.655 2203.57)
(-19.6513 750 2204.02)
(-22.42 499.497 2205.31)
(-21.6942 750 2204.95)
(-23.6934 750 2205.97)
(-26.1521 499.316 2207.38)
(-25.645 750 2207.08)
(-29.7235 499.116 2209.79)
(-27.5448 750 2208.27)
(-29.3893 750 2209.55)
(-33.1015 498.903 2212.53)
(-31.1745 750 2210.91)
(-32.8969 750 2212.35)
(-36.2523 498.684 2215.56)
(-34.5531 750 2213.86)
(-36.1397 750 2215.45)
(-39.1443 498.465 2218.89)
(-37.6536 750 2217.1)
(-39.0916 750 2218.83)
(-41.7469 498.254 2222.48)
(-40.4509 750 2220.61)
(-41.7287 750 2222.46)
(-44.0319 498.057 2226.31)
(-42.9224 750 2224.35)
(-44.0298 750 2226.31)
(-45.0484 750 2228.31)
(-45.7959 497.898 2229.93)
(-45.9764 750 2230.35)
(-46.8117 750 2232.43)
(-47.2657 497.761 2233.69)
(-47.5528 750 2234.55)
(-48.4285 497.649 2237.56)
(-48.1981 750 2236.7)
(-48.7464 750 2238.87)
(-49.2747 497.566 2241.51)
(-49.1965 750 2241.07)
(-49.5475 750 2243.29)
(-49.7984 497.514 2245.51)
(-49.7987 750 2245.52)
(-49.9495 497.499 2247.75)
(-49.9497 750 2247.76)
(-50 497.494 2250)
(-50 750 2250)
(-49.8961 497.504 2253.22)
(-49.9497 750 2252.24)
(-49.5863 497.535 2256.42)
(-49.7987 750 2254.48)
(-49.5475 750 2256.71)
(-48.9066 497.602 2260.4)
(-49.1965 750 2258.93)
(-48.7464 750 2261.13)
(-47.9067 497.7 2264.32)
(-48.1981 750 2263.3)
(-46.5944 497.824 2268.14)
(-47.5528 750 2265.45)
(-46.8117 750 2267.57)
(-44.981 497.973 2271.83)
(-45.9764 750 2269.65)
(-45.0484 750 2271.69)
(-42.8526 498.16 2275.76)
(-44.0298 750 2273.69)
(-42.9224 750 2275.65)
(-40.3946 498.366 2279.47)
(-41.7287 750 2277.54)
(-40.4509 750 2279.39)
(-37.6339 498.582 2282.92)
(-39.0916 750 2281.17)
(-37.6536 750 2282.9)
(-34.5996 498.801 2286.1)
(-36.1397 750 2284.55)
(-34.5531 750 2286.14)
(-31.3234 499.018 2288.97)
(-32.8969 750 2287.65)
(-31.1745 750 2289.09)
(-29.3893 750 2290.45)
(-27.8379 499.224 2291.53)
(-27.5448 750 2291.73)
(-25.645 750 2292.92)
(-24.1763 499.415 2293.77)
(-23.6934 750 2294.03)
(-21.6942 750 2295.05)
(-20.3727 499.585 2295.66)
(-19.6513 750 2295.98)
(-17.5687 750 2296.81)
(-16.4566 499.729 2297.21)
(-15.4508 750 2297.55)
(-12.4536 499.845 2298.42)
(-13.3018 750 2298.2)
(-8.36979 499.93 2299.29)
(-11.126 750 2298.75)
(-8.92785 750 2299.2)
(-4.37804 499.981 2299.81)
(-6.71166 750 2299.55)
(-4.48197 750 2299.8)
(3.06162e-14 500 2300)
(-2.24324 750 2299.95)
(-9.18485e-15 750 2300)
(3.1128 499.99 2299.9)
(2.24324 750 2299.95)
(6.06872 499.963 2299.63)
(4.48197 750 2299.8)
(6.71166 750 2299.55)
(10.2975 499.894 2298.93)
(8.92785 750 2299.2)
(11.126 750 2298.75)
(14.4544 499.791 2297.87)
(13.3018 750 2298.2)
(18.4788 499.658 2296.46)
(15.4508 750 2297.55)
(17.5687 750 2296.81)
(22.3356 499.501 2294.73)
(19.6513 750 2295.98)
(21.6942 750 2295.05)
(26.002 499.323 2292.71)
(23.6934 750 2294.03)
(25.645 750 2292.92)
(29.4591 499.131 2290.4)
(27.5448 750 2291.73)
(29.3893 750 2290.45)
(32.6897 498.93 2287.83)
(31.1745 750 2289.09)
(32.8969 750 2287.65)
(35.6785 498.725 2285.03)
(34.5531 750 2286.14)
(36.1397 750 2284.55)
(38.4117 498.522 2282.01)
(37.6536 750 2282.9)
(39.0916 750 2281.17)
(40.8771 498.326 2278.79)
(40.4509 750 2279.39)
(41.7287 750 2277.54)
(43.064 498.142 2275.41)
(42.9224 750 2275.65)
(45.1563 497.957 2271.47)
(44.0298 750 2273.69)
(45.0484 750 2271.69)
(46.8835 497.797 2267.38)
(45.9764 750 2269.65)
(46.8117 750 2267.57)
(48.2382 497.668 2263.16)
(47.5528 750 2265.45)
(48.1981 750 2263.3)
(49.2135 497.572 2258.83)
(48.7464 750 2261.13)
(49.1965 750 2258.93)
(49.8016 497.514 2254.45)
(49.5475 750 2256.71)
(49.7987 750 2254.48)
(49.9497 750 2252.24)
)


// edges:

216
(
(0 1)
(2 3)
(4 2)
(5 4)
(1 6)
(7 5)
(8 7)
(6 9)
(10 8)
(11 10)
(9 12)
(13 11)
(12 14)
(15 13)
(16 15)
(14 17)
(18 16)
(19 18)
(17 20)
(21 19)
(22 21)
(20 23)
(24 22)
(23 25)
(26 24)
(27 26)
(25 28)
(29 27)
(30 29)
(28 31)
(32 30)
(33 32)
(31 34)
(35 33)
(36 35)
(34 37)
(38 36)
(39 38)
(37 40)
(41 39)
(42 41)
(43 42)
(40 44)
(45 43)
(44 46)
(47 45)
(48 47)
(46 49)
(50 48)
(51 50)
(49 52)
(53 51)
(54 53)
(52 55)
(56 54)
(57 56)
(55 58)
(59 57)
(60 59)
(58 61)
(62 60)
(63 62)
(61 64)
(65 63)
(66 65)
(64 67)
(68 66)
(67 69)
(70 68)
(71 70)
(69 72)
(73 71)
(72 74)
(75 73)
(76 75)
(74 77)
(78 76)
(79 78)
(77 80)
(81 79)
(82 81)
(80 83)
(84 82)
(85 84)
(83 86)
(87 85)
(88 87)
(86 89)
(90 88)
(91 90)
(92 91)
(89 93)
(94 92)
(95 94)
(93 96)
(97 95)
(96 98)
(99 97)
(100 99)
(98 101)
(102 100)
(103 102)
(101 104)
(105 103)
(104 106)
(107 105)
(106 108)
(109 107)
(108 110)
(111 109)
(110 112)
(113 111)
(114 113)
(112 115)
(116 114)
(117 116)
(115 118)
(119 117)
(118 120)
(121 119)
(122 121)
(120 123)
(124 122)
(125 124)
(123 126)
(127 125)
(128 127)
(126 129)
(130 128)
(131 130)
(129 132)
(133 131)
(134 133)
(132 135)
(136 134)
(137 136)
(135 138)
(139 137)
(140 139)
(141 140)
(138 142)
(143 141)
(144 143)
(142 145)
(146 144)
(147 146)
(145 148)
(149 147)
(150 149)
(148 151)
(152 150)
(151 153)
(154 152)
(153 155)
(156 154)
(157 156)
(155 158)
(159 157)
(160 159)
(158 161)
(162 160)
(163 162)
(161 164)
(165 163)
(164 166)
(167 165)
(168 167)
(166 169)
(170 168)
(171 170)
(169 172)
(173 171)
(172 174)
(175 173)
(176 175)
(174 177)
(178 176)
(179 178)
(177 180)
(181 179)
(182 181)
(180 183)
(184 182)
(185 184)
(183 186)
(187 185)
(188 187)
(186 189)
(190 188)
(191 190)
(189 192)
(193 191)
(194 193)
(192 195)
(196 194)
(197 196)
(195 198)
(199 197)
(198 200)
(201 199)
(202 201)
(200 203)
(204 202)
(205 204)
(203 206)
(207 205)
(208 207)
(206 209)
(210 208)
(211 210)
(209 212)
(213 211)
(214 213)
(212 0)
(215 214)
(3 215)
)

// * * * * * * * * * * * * * * * * * * * * * * * * * * * * * * * * * * * * * //


// ************************************************************************* //
