/*--------------------------------*- C++ -*----------------------------------*\
| =========                 |                                                 |
| \\      /  F ield         | OpenFOAM: The Open Source CFD Toolbox           |
|  \\    /   O peration     | Version:  4.1                                   |
|   \\  /    A nd           | Web:      www.OpenFOAM.org                      |
|    \\/     M anipulation  |                                                 |
\*---------------------------------------------------------------------------*/
FoamFile
{
    version     2.0;
    format      ascii;
    class       featureEdgeMesh;
    location    "constant/triSurface";
    object      wall1.eMesh;
}
// * * * * * * * * * * * * * * * * * * * * * * * * * * * * * * * * * * * * * //


// points:

221
(
(318.566 -385.377 2300)
(329.376 -376.18 2300)
(339.921 -366.679 2300)
(350.192 -356.883 2300)
(360.181 -346.799 2300)
(369.879 -336.436 2300)
(379.28 -325.802 2300)
(388.374 -314.905 2300)
(397.156 -303.755 2300)
(405.618 -292.359 2300)
(413.753 -280.729 2300)
(421.554 -268.871 2300)
(429.016 -256.798 2300)
(436.132 -244.517 2300)
(442.897 -232.039 2300)
(449.305 -219.375 2300)
(455.351 -206.533 2300)
(461.029 -193.525 2300)
(466.337 -180.361 2300)
(471.268 -167.052 2300)
(475.82 -153.608 2300)
(479.988 -140.041 2300)
(483.77 -126.36 2300)
(487.161 -112.578 2300)
(490.161 -98.705 2300)
(492.765 -84.7525 2300)
(494.972 -70.7317 2300)
(496.78 -56.6538 2300)
(498.188 -42.5304 2300)
(-42.5304 498.188 2300)
(-56.6538 496.78 2300)
(499.194 -28.3726 2300)
(-28.3726 499.194 2300)
(499.799 -14.192 2300)
(-14.192 499.799 2300)
(3.06162e-14 500 2300)
(500 -1.22465e-13 2300)
(499.796 14.278 2300)
(14.278 499.796 2300)
(499.185 28.5444 2300)
(28.5444 499.185 2300)
(498.166 42.7875 2300)
(42.7875 498.166 2300)
(496.741 56.9957 2300)
(56.9957 496.741 2300)
(71.1574 494.911 2300)
(494.911 71.1574 2300)
(492.677 85.2611 2300)
(85.2611 492.677 2300)
(99.2952 490.041 2300)
(490.041 99.2952 2300)
(487.006 113.248 2300)
(113.248 487.006 2300)
(127.109 483.573 2300)
(483.573 127.109 2300)
(140.866 479.746 2300)
(479.746 140.866 2300)
(154.508 475.528 2300)
(475.528 154.508 2300)
(168.025 470.922 2300)
(470.922 168.025 2300)
(181.404 465.932 2300)
(465.932 181.404 2300)
(460.562 194.635 2300)
(194.635 460.562 2300)
(207.708 454.816 2300)
(454.816 207.708 2300)
(220.611 448.699 2300)
(448.699 220.611 2300)
(233.334 442.216 2300)
(442.216 233.334 2300)
(245.866 435.373 2300)
(435.373 245.866 2300)
(258.199 428.175 2300)
(428.175 258.199 2300)
(270.32 420.627 2300)
(420.627 270.32 2300)
(282.222 412.736 2300)
(412.736 282.222 2300)
(293.893 404.508 2300)
(404.508 293.893 2300)
(305.324 395.951 2300)
(395.951 305.324 2300)
(316.506 387.071 2300)
(387.071 316.506 2300)
(327.43 377.875 2300)
(377.875 327.43 2300)
(368.371 338.087 2300)
(338.087 368.371 2300)
(358.566 348.469 2300)
(348.469 358.566 2300)
(-70.7317 494.972 2300)
(-84.7525 492.765 2300)
(-98.705 490.161 2300)
(-112.578 487.161 2300)
(-126.36 483.77 2300)
(-140.041 479.988 2300)
(-153.608 475.82 2300)
(-167.052 471.268 2300)
(-180.361 466.337 2300)
(-193.525 461.029 2300)
(-206.533 455.351 2300)
(-219.375 449.305 2300)
(-232.039 442.897 2300)
(-244.517 436.132 2300)
(-256.798 429.016 2300)
(-268.871 421.554 2300)
(-280.729 413.753 2300)
(-292.359 405.618 2300)
(-303.755 397.156 2300)
(-314.905 388.374 2300)
(-325.802 379.28 2300)
(-336.436 369.879 2300)
(-346.799 360.181 2300)
(-356.883 350.192 2300)
(-366.679 339.921 2300)
(-376.18 329.376 2300)
(-385.377 318.566 2300)
(-394.264 307.499 2300)
(-402.833 296.185 2300)
(-411.078 284.631 2300)
(-418.991 272.848 2300)
(-426.567 260.846 2300)
(-433.799 248.633 2300)
(-440.682 236.22 2300)
(-447.209 223.616 2300)
(-453.376 210.833 2300)
(-459.177 197.879 2300)
(-464.609 184.766 2300)
(-469.666 171.504 2300)
(-474.345 158.104 2300)
(-478.642 144.576 2300)
(-482.552 130.932 2300)
(-486.074 117.183 2300)
(-489.205 103.339 2300)
(-491.941 89.4115 2300)
(-494.28 75.4121 2300)
(-496.222 61.3521 2300)
(-497.763 47.2426 2300)
(-498.904 33.095 2300)
(-499.642 18.9207 2300)
(-499.978 4.73124 2300)
(-499.91 -9.46206 2300)
(-499.44 -23.6477 2300)
(-498.568 -37.8144 2300)
(-497.294 -51.9505 2300)
(-495.619 -66.0448 2300)
(-493.545 -80.0859 2300)
(-491.073 -94.0624 2300)
(-488.205 -107.963 2300)
(-484.944 -121.777 2300)
(-481.292 -135.493 2300)
(-477.252 -149.099 2300)
(-472.828 -162.585 2300)
(-468.022 -175.941 2300)
(-462.84 -189.154 2300)
(-457.284 -202.215 2300)
(-451.361 -215.113 2300)
(-445.073 -227.838 2300)
(-438.427 -240.379 2300)
(-431.427 -252.727 2300)
(-424.08 -264.87 2300)
(-416.391 -276.801 2300)
(-408.366 -288.508 2300)
(-400.013 -299.983 2300)
(-391.337 -311.216 2300)
(-382.346 -322.199 2300)
(-373.046 -332.921 2300)
(-363.446 -343.376 2300)
(-353.553 -353.553 2300)
(-343.376 -363.446 2300)
(-332.921 -373.046 2300)
(-322.199 -382.346 2300)
(-311.216 -391.337 2300)
(-299.983 -400.013 2300)
(-288.508 -408.366 2300)
(-276.801 -416.391 2300)
(-264.87 -424.08 2300)
(-252.727 -431.427 2300)
(-240.379 -438.427 2300)
(-227.838 -445.073 2300)
(-215.113 -451.361 2300)
(-202.215 -457.284 2300)
(-189.154 -462.84 2300)
(-175.941 -468.022 2300)
(-162.585 -472.828 2300)
(-149.099 -477.252 2300)
(-135.493 -481.292 2300)
(-121.777 -484.944 2300)
(-107.963 -488.205 2300)
(-94.0624 -491.073 2300)
(-80.0859 -493.545 2300)
(-66.0448 -495.619 2300)
(-51.9505 -497.294 2300)
(-37.8144 -498.568 2300)
(-23.6477 -499.44 2300)
(-9.46206 -499.91 2300)
(4.73124 -499.978 2300)
(18.9207 -499.642 2300)
(33.095 -498.904 2300)
(47.2426 -497.763 2300)
(61.3521 -496.222 2300)
(75.4121 -494.28 2300)
(89.4115 -491.941 2300)
(103.339 -489.205 2300)
(117.183 -486.074 2300)
(130.932 -482.552 2300)
(144.576 -478.642 2300)
(158.104 -474.345 2300)
(171.504 -469.666 2300)
(184.766 -464.609 2300)
(197.879 -459.177 2300)
(210.833 -453.376 2300)
(223.616 -447.209 2300)
(236.22 -440.682 2300)
(248.633 -433.799 2300)
(260.846 -426.567 2300)
(272.848 -418.991 2300)
(284.631 -411.078 2300)
(296.185 -402.833 2300)
(307.499 -394.264 2300)
)


// edges:

221
(
(0 1)
(1 2)
(2 3)
(3 4)
(4 5)
(5 6)
(6 7)
(7 8)
(8 9)
(9 10)
(10 11)
(11 12)
(12 13)
(13 14)
(14 15)
(15 16)
(16 17)
(17 18)
(18 19)
(19 20)
(20 21)
(21 22)
(22 23)
(23 24)
(24 25)
(25 26)
(26 27)
(27 28)
(29 30)
(28 31)
(32 29)
(31 33)
(34 32)
(35 34)
(33 36)
(36 37)
(38 35)
(37 39)
(40 38)
(39 41)
(42 40)
(41 43)
(44 42)
(45 44)
(43 46)
(46 47)
(48 45)
(49 48)
(47 50)
(50 51)
(52 49)
(53 52)
(51 54)
(55 53)
(54 56)
(57 55)
(56 58)
(59 57)
(58 60)
(61 59)
(60 62)
(62 63)
(64 61)
(65 64)
(63 66)
(67 65)
(66 68)
(69 67)
(68 70)
(71 69)
(70 72)
(73 71)
(72 74)
(75 73)
(74 76)
(77 75)
(76 78)
(79 77)
(78 80)
(81 79)
(80 82)
(83 81)
(82 84)
(85 83)
(84 86)
(86 87)
(88 85)
(87 89)
(90 88)
(89 90)
(30 91)
(91 92)
(92 93)
(93 94)
(94 95)
(95 96)
(96 97)
(97 98)
(98 99)
(99 100)
(100 101)
(101 102)
(102 103)
(103 104)
(104 105)
(105 106)
(106 107)
(107 108)
(108 109)
(109 110)
(110 111)
(111 112)
(112 113)
(113 114)
(114 115)
(115 116)
(116 117)
(117 118)
(118 119)
(119 120)
(120 121)
(121 122)
(122 123)
(123 124)
(124 125)
(125 126)
(126 127)
(127 128)
(128 129)
(129 130)
(130 131)
(131 132)
(132 133)
(133 134)
(134 135)
(135 136)
(136 137)
(137 138)
(138 139)
(139 140)
(140 141)
(141 142)
(142 143)
(143 144)
(144 145)
(145 146)
(146 147)
(147 148)
(148 149)
(149 150)
(150 151)
(151 152)
(152 153)
(153 154)
(154 155)
(155 156)
(156 157)
(157 158)
(158 159)
(159 160)
(160 161)
(161 162)
(162 163)
(163 164)
(164 165)
(165 166)
(166 167)
(167 168)
(168 169)
(169 170)
(170 171)
(171 172)
(172 173)
(173 174)
(174 175)
(175 176)
(176 177)
(177 178)
(178 179)
(179 180)
(180 181)
(181 182)
(182 183)
(183 184)
(184 185)
(185 186)
(186 187)
(187 188)
(188 189)
(189 190)
(190 191)
(191 192)
(192 193)
(193 194)
(194 195)
(195 196)
(196 197)
(197 198)
(198 199)
(199 200)
(200 201)
(201 202)
(202 203)
(203 204)
(204 205)
(205 206)
(206 207)
(207 208)
(208 209)
(209 210)
(210 211)
(211 212)
(212 213)
(213 214)
(214 215)
(215 216)
(216 217)
(217 218)
(218 219)
(219 220)
(220 0)
)

// * * * * * * * * * * * * * * * * * * * * * * * * * * * * * * * * * * * * * //


// ************************************************************************* //
