/*--------------------------------*- C++ -*----------------------------------*\
| =========                 |                                                 |
| \\      /  F ield         | OpenFOAM: The Open Source CFD Toolbox           |
|  \\    /   O peration     | Version:  4.1                                   |
|   \\  /    A nd           | Web:      www.OpenFOAM.org                      |
|    \\/     M anipulation  |                                                 |
\*---------------------------------------------------------------------------*/
FoamFile
{
    version     2.0;
    format      ascii;
    class       polyBoundaryMesh;
    location    "constant/polyMesh";
    object      boundary;
}
// * * * * * * * * * * * * * * * * * * * * * * * * * * * * * * * * * * * * * //

10
(
    outlet
    {
        type            wall;
        inGroups        1(wall);
        nFaces          0;
        startFace       108726;
    }
    inlet
    {
        type            wall;
        inGroups        1(wall);
        nFaces          0;
        startFace       108726;
    }
    wall_inlet2
    {
        type            wall;
        inGroups        1(wall);
        nFaces          0;
        startFace       108726;
    }
    wall_distributor1
    {
        type            wall;
        inGroups        1(wall);
        nFaces          6820;
        startFace       108726;
    }
    wall_outlet2
    {
        type            wall;
        inGroups        1(wall);
        nFaces          0;
        startFace       115546;
    }
    wall_Tank
    {
        type            wall;
        inGroups        1(wall);
        nFaces          0;
        startFace       115546;
    }
    wall_tankoben
    {
        type            wall;
        inGroups        1(wall);
        nFaces          0;
        startFace       115546;
    }
    wall_tankunten
    {
        type            wall;
        inGroups        1(wall);
        nFaces          0;
        startFace       115546;
    }
    procBoundary1to0
    {
        type            processor;
        inGroups        1(processor);
        nFaces          1065;
        startFace       115546;
        matchTolerance  0.0001;
        transform       unknown;
        myProcNo        1;
        neighbProcNo    0;
    }
    procBoundary1to3
    {
        type            processor;
        inGroups        1(processor);
        nFaces          897;
        startFace       116611;
        matchTolerance  0.0001;
        transform       unknown;
        myProcNo        1;
        neighbProcNo    3;
    }
)

// ************************************************************************* //
