/*--------------------------------*- C++ -*----------------------------------*\
| =========                 |                                                 |
| \\      /  F ield         | OpenFOAM: The Open Source CFD Toolbox           |
|  \\    /   O peration     | Version:  4.1                                   |
|   \\  /    A nd           | Web:      www.OpenFOAM.org                      |
|    \\/     M anipulation  |                                                 |
\*---------------------------------------------------------------------------*/
FoamFile
{
    version     2.0;
    format      ascii;
    class       polyBoundaryMesh;
    location    "2/polyMesh";
    object      boundary;
}
// * * * * * * * * * * * * * * * * * * * * * * * * * * * * * * * * * * * * * //

6
(
    defaultFaces
    {
        type            empty;
        inGroups        1(empty);
        nFaces          3550;
        startFace       63782;
    }
    Wand_Inlet
    {
        type            wall;
        inGroups        1(wall);
        nFaces          140;
        startFace       67332;
    }
    Wand_Outlet
    {
        type            wall;
        inGroups        1(wall);
        nFaces          84;
        startFace       67472;
    }
    Wand_TankOben
    {
        type            wall;
        inGroups        1(wall);
        nFaces          1446;
        startFace       67556;
    }
    Wand_TankUnten
    {
        type            wall;
        inGroups        1(wall);
        nFaces          1576;
        startFace       69002;
    }
    Wand_Tankwand
    {
        type            wall;
        inGroups        1(wall);
        nFaces          3748;
        startFace       70578;
    }
)

// ************************************************************************* //
