/*--------------------------------*- C++ -*----------------------------------*\
| =========                 |                                                 |
| \\      /  F ield         | OpenFOAM: The Open Source CFD Toolbox           |
|  \\    /   O peration     | Version:  4.1                                   |
|   \\  /    A nd           | Web:      www.OpenFOAM.org                      |
|    \\/     M anipulation  |                                                 |
\*---------------------------------------------------------------------------*/
FoamFile
{
    version     2.0;
    format      ascii;
    class       polyBoundaryMesh;
    location    "constant/polyMesh";
    object      boundary;
}
// * * * * * * * * * * * * * * * * * * * * * * * * * * * * * * * * * * * * * //

10
(
    outlet
    {
        type            wall;
        inGroups        1(wall);
        nFaces          16;
        startFace       106634;
    }
    inlet
    {
        type            wall;
        inGroups        1(wall);
        nFaces          0;
        startFace       106650;
    }
    wall_inlet2
    {
        type            wall;
        inGroups        1(wall);
        nFaces          0;
        startFace       106650;
    }
    wall_distributor1
    {
        type            wall;
        inGroups        1(wall);
        nFaces          4322;
        startFace       106650;
    }
    wall_outlet2
    {
        type            wall;
        inGroups        1(wall);
        nFaces          81;
        startFace       110972;
    }
    wall_Tank
    {
        type            wall;
        inGroups        1(wall);
        nFaces          2930;
        startFace       111053;
    }
    wall_tankoben
    {
        type            wall;
        inGroups        1(wall);
        nFaces          1302;
        startFace       113983;
    }
    wall_tankunten
    {
        type            wall;
        inGroups        1(wall);
        nFaces          1296;
        startFace       115285;
    }
    procBoundary0to1
    {
        type            processor;
        inGroups        1(processor);
        nFaces          1065;
        startFace       116581;
        matchTolerance  0.0001;
        transform       unknown;
        myProcNo        0;
        neighbProcNo    1;
    }
    procBoundary0to3
    {
        type            processor;
        inGroups        1(processor);
        nFaces          359;
        startFace       117646;
        matchTolerance  0.0001;
        transform       unknown;
        myProcNo        0;
        neighbProcNo    3;
    }
)

// ************************************************************************* //
