/*--------------------------------*- C++ -*----------------------------------*\
| =========                 |                                                 |
| \\      /  F ield         | OpenFOAM: The Open Source CFD Toolbox           |
|  \\    /   O peration     | Version:  4.1                                   |
|   \\  /    A nd           | Web:      www.OpenFOAM.org                      |
|    \\/     M anipulation  |                                                 |
\*---------------------------------------------------------------------------*/
FoamFile
{
    version     2.0;
    format      binary;
    class       polyBoundaryMesh;
    location    "1/polyMesh";
    object      boundary;
}
// * * * * * * * * * * * * * * * * * * * * * * * * * * * * * * * * * * * * * //

9
(
    outlet
    {
        type            wall;
        inGroups        1(wall);
        nFaces          16;
        startFace       428912;
    }
    inlet
    {
        type            wall;
        inGroups        1(wall);
        nFaces          32;
        startFace       428928;
    }
    wall
    {
        type            wall;
        inGroups        1(wall);
        nFaces          0;
        startFace       428960;
    }
    wall_inlet2
    {
        type            wall;
        inGroups        1(wall);
        nFaces          440;
        startFace       428960;
    }
    wall_distributor1
    {
        type            wall;
        inGroups        1(wall);
        nFaces          40416;
        startFace       429400;
    }
    wall_outlet2
    {
        type            wall;
        inGroups        1(wall);
        nFaces          126;
        startFace       469816;
    }
    wall_Tank
    {
        type            wall;
        inGroups        1(wall);
        nFaces          4356;
        startFace       469942;
    }
    wall_tankoben
    {
        type            wall;
        inGroups        1(wall);
        nFaces          1624;
        startFace       474298;
    }
    wall_tankunten
    {
        type            wall;
        inGroups        1(wall);
        nFaces          1440;
        startFace       475922;
    }
)

// ************************************************************************* //
