/*--------------------------------*- C++ -*----------------------------------*\
| =========                 |                                                 |
| \\      /  F ield         | OpenFOAM: The Open Source CFD Toolbox           |
|  \\    /   O peration     | Version:  2.2.2                                 |
|   \\  /    A nd           | Web:      www.OpenFOAM.org                      |
|    \\/     M anipulation  |                                                 |
\*---------------------------------------------------------------------------*/
FoamFile
{
    version     2.0;
    format      ascii;
    class       volScalarField;
    location    "0";
    object      nut;
}
// * * * * * * * * * * * * * * * * * * * * * * * * * * * * * * * * * * * * * //

dimensions      [0 2 -1 0 0 0 0];

internalField   uniform 0;

boundaryField
{
    inlet
    {
        type            zeroGradient;
    }
    outlet
    {
        type            zeroGradient;
    }

    Wand_Tankwand
    {
        type            nutkWallFunction;
        value           uniform 0;
    }
    Wand_TankOben
    {
        type            nutkWallFunction;
        value           uniform 0;
    }
    Wand_TankUnten
    {
        type            nutkWallFunction;
        value           uniform 0;
    }
    Wand_Inlet
    {
        type            nutkWallFunction;
        value           uniform 0;
    }
    Wand_Outlet
    {
        type            nutkWallFunction;
        value           uniform 0;
    }
    wall
    {
        type            nutkWallFunction;
        value           uniform 0;
    }

}


// ************************************************************************* //
